MODEL 1
REMARK VINA RESULT:     -11.5      0.000      0.000
REMARK  14 active torsions:
REMARK  status: ('A' for Active; 'I' for Inactive)
REMARK    1  A    between atoms: N1_1  and  C31_43 
REMARK    2  A    between atoms: C2_3  and  C3_4 
REMARK       I    between atoms: C3_4  and  N2_6 
REMARK    3  A    between atoms: N2_6  and  C4_8 
REMARK    4  A    between atoms: N3_12  and  C10_15 
REMARK    5  A    between atoms: C10_15  and  C11_16 
REMARK    6  A    between atoms: C11_16  and  O2_17 
REMARK    7  A    between atoms: C11_16  and  C12_19 
REMARK    8  A    between atoms: C12_19  and  C13_20 
REMARK    9  A    between atoms: C13_20  and  C21_28 
REMARK   10  A    between atoms: C13_20  and  C14_21 
REMARK   11  A    between atoms: C14_21  and  C15_22 
REMARK       I    between atoms: C21_28  and  N4_30 
REMARK   12  A    between atoms: N4_30  and  C22_32 
REMARK   13  A    between atoms: C23_33  and  O4_34 
REMARK   14  A    between atoms: C31_43  and  C32_44 
ROOT
HETATM    1  N1  MK1 B 902       9.170  24.057   3.125  1.00 28.25     0.096 N 
HETATM    2  C1  MK1 B 902       9.445  24.225   4.577  1.00 30.30     0.307 C 
HETATM    3  C2  MK1 B 902      10.625  25.041   5.067  1.00 27.27     0.200 C 
HETATM    4  N3  MK1 B 902      11.779  24.330   4.413  1.00 28.91    -0.395 N 
HETATM    5  C8  MK1 B 902      11.633  23.862   3.012  1.00 26.24     0.148 C 
HETATM    6  C9  MK1 B 902      10.262  23.391   2.570  1.00 27.47     0.292 C 
ENDROOT
BRANCH   1   7
HETATM    7  C31 MK1 B 902       7.861  23.510   2.748  1.00 36.25     0.312 C 
BRANCH   7   8
HETATM    8  C32 MK1 B 902       6.564  24.042   3.371  1.00 42.75    -0.015 A 
HETATM    9  C36 MK1 B 902       5.591  23.123   3.703  1.00 44.71     0.011 A 
HETATM   10  C35 MK1 B 902       4.403  23.602   4.250  1.00 49.34     0.018 A 
HETATM   11  C34 MK1 B 902       4.228  24.975   4.443  1.00 50.60     0.087 A 
HETATM   12  N5  MK1 B 902       5.158  25.967   4.135  1.00 51.38    -0.375 N 
HETATM   13  C33 MK1 B 902       6.324  25.406   3.590  1.00 47.41     0.096 A 
HETATM   14  H5  MK1 B 902       5.011  26.966   4.284  1.00  0.00     0.164 HD
ENDBRANCH   7   8
ENDBRANCH   1   7
BRANCH   3  15
HETATM   15  C3  MK1 B 902      10.662  24.967   6.569  1.00 28.85     0.242 C 
HETATM   16  O1  MK1 B 902      10.801  23.888   7.132  1.00 29.59    -0.271 OA
HETATM   17  N2  MK1 B 902      10.525  26.101   7.227  1.00 22.29    -0.351 N 
HETATM   18  H2  MK1 B 902      10.349  26.918   6.642  1.00  0.00     0.163 HD
BRANCH  17  19
HETATM   19  C4  MK1 B 902      10.584  26.370   8.629  1.00 23.47     0.022 C 
HETATM   20  C7  MK1 B 902       9.641  25.572   9.418  1.00 22.75     0.037 C 
HETATM   21  C5  MK1 B 902      10.121  27.825   8.827  1.00 27.66     0.037 C 
HETATM   22  C6  MK1 B 902      11.847  26.188   9.170  1.00 21.71     0.037 C 
ENDBRANCH  17  19
ENDBRANCH   3  15
BRANCH   4  23
HETATM   23  C10 MK1 B 902      13.101  24.897   4.587  1.00 20.86     0.149 C 
BRANCH  23  24
HETATM   24  C11 MK1 B 902      14.136  23.916   5.141  1.00 21.68     0.136 C 
BRANCH  24  25
HETATM   25  O2  MK1 B 902      15.245  24.639   4.698  1.00 15.87    -0.394 OA
HETATM   26  H2  MK1 B 902      16.027  24.175   4.974  1.00  0.00     0.210 HD
ENDBRANCH  24  25
BRANCH  24  27
HETATM   27  C12 MK1 B 902      14.329  23.618   6.639  1.00 21.49     0.047 C 
BRANCH  27  28
HETATM   28  C13 MK1 B 902      15.478  22.717   7.114  1.00 26.89     0.084 C 
BRANCH  28  29
HETATM   29  C21 MK1 B 902      15.432  21.339   6.465  1.00 29.35     0.222 C 
HETATM   30  N4  MK1 B 902      16.583  20.914   5.951  1.00 31.19    -0.350 N 
HETATM   31  H4  MK1 B 902      17.338  21.582   5.798  1.00  0.00     0.163 HD
HETATM   32  O3  MK1 B 902      14.408  20.644   6.531  1.00 32.66    -0.273 OA
BRANCH  30  33
HETATM   33  C22 MK1 B 902      16.790  19.519   5.600  1.00 29.22     0.147 C 
HETATM   34  C30 MK1 B 902      16.591  19.092   4.122  1.00 31.86    -0.027 A 
HETATM   35  C29 MK1 B 902      15.711  19.463   3.155  1.00 27.70     0.010 A 
HETATM   36  C25 MK1 B 902      17.637  18.020   3.703  1.00 31.29    -0.047 A 
HETATM   37  C28 MK1 B 902      15.755  18.917   1.880  1.00 29.01     0.001 A 
HETATM   38  C27 MK1 B 902      16.713  17.960   1.510  1.00 28.00     0.001 A 
HETATM   39  C26 MK1 B 902      17.664  17.504   2.429  1.00 32.00     0.008 A 
HETATM   40  C24 MK1 B 902      18.438  17.878   4.974  1.00 32.05     0.073 C 
HETATM   41  C23 MK1 B 902      18.213  19.066   5.881  1.00 28.82     0.149 C 
BRANCH  41  42
HETATM   42  O4  MK1 B 902      19.121  20.136   5.665  1.00 28.32    -0.393 OA
HETATM   43  H4  MK1 B 902      18.946  20.552   4.829  1.00  0.00     0.210 HD
ENDBRANCH  41  42
ENDBRANCH  30  33
ENDBRANCH  28  29
BRANCH  28  44
HETATM   44  C14 MK1 B 902      15.489  22.546   8.644  1.00 28.67     0.052 C 
BRANCH  44  45
HETATM   45  C15 MK1 B 902      16.604  21.684   9.110  1.00 26.89    -0.057 A 
HETATM   46  C16 MK1 B 902      17.943  21.974   8.842  1.00 29.22     0.007 A 
HETATM   47  C17 MK1 B 902      18.950  21.120   9.266  1.00 29.22     0.001 A 
HETATM   48  C18 MK1 B 902      18.601  19.963   9.965  1.00 30.97     0.000 A 
HETATM   49  C19 MK1 B 902      17.260  19.671  10.242  1.00 29.25     0.001 A 
HETATM   50  C20 MK1 B 902      16.258  20.540   9.810  1.00 29.96     0.007 A 
ENDBRANCH  44  45
ENDBRANCH  28  44
ENDBRANCH  27  28
ENDBRANCH  24  27
ENDBRANCH  23  24
ENDBRANCH   4  23
TORSDOF 14
ENDMDL
MODEL 2
REMARK VINA RESULT:     -10.3      2.054     10.250
REMARK  14 active torsions:
REMARK  status: ('A' for Active; 'I' for Inactive)
REMARK    1  A    between atoms: N1_1  and  C31_43 
REMARK    2  A    between atoms: C2_3  and  C3_4 
REMARK       I    between atoms: C3_4  and  N2_6 
REMARK    3  A    between atoms: N2_6  and  C4_8 
REMARK    4  A    between atoms: N3_12  and  C10_15 
REMARK    5  A    between atoms: C10_15  and  C11_16 
REMARK    6  A    between atoms: C11_16  and  O2_17 
REMARK    7  A    between atoms: C11_16  and  C12_19 
REMARK    8  A    between atoms: C12_19  and  C13_20 
REMARK    9  A    between atoms: C13_20  and  C21_28 
REMARK   10  A    between atoms: C13_20  and  C14_21 
REMARK   11  A    between atoms: C14_21  and  C15_22 
REMARK       I    between atoms: C21_28  and  N4_30 
REMARK   12  A    between atoms: N4_30  and  C22_32 
REMARK   13  A    between atoms: C23_33  and  O4_34 
REMARK   14  A    between atoms: C31_43  and  C32_44 
ROOT
HETATM    1  N1  MK1 B 902      16.575  21.403   8.868  1.00 28.25     0.096 N 
HETATM    2  C1  MK1 B 902      16.139  20.527   7.747  1.00 30.30     0.307 C 
HETATM    3  C2  MK1 B 902      16.216  20.992   6.306  1.00 27.27     0.200 C 
HETATM    4  N3  MK1 B 902      15.363  22.232   6.340  1.00 28.91    -0.395 N 
HETATM    5  C8  MK1 B 902      15.475  23.148   7.503  1.00 26.24     0.148 C 
HETATM    6  C9  MK1 B 902      15.753  22.530   8.858  1.00 27.47     0.292 C 
ENDROOT
BRANCH   1   7
HETATM    7  C31 MK1 B 902      16.743  20.776  10.184  1.00 36.25     0.312 C 
BRANCH   7   8
HETATM    8  C32 MK1 B 902      17.244  19.334  10.324  1.00 42.75    -0.015 A 
HETATM    9  C36 MK1 B 902      18.568  19.086  10.032  1.00 44.71     0.011 A 
HETATM   10  C35 MK1 B 902      19.025  17.775  10.138  1.00 49.34     0.018 A 
HETATM   11  C34 MK1 B 902      18.145  16.760  10.527  1.00 50.60     0.087 A 
HETATM   12  N5  MK1 B 902      16.797  16.925  10.840  1.00 51.38    -0.375 N 
HETATM   13  C33 MK1 B 902      16.416  18.270  10.710  1.00 47.41     0.096 A 
HETATM   14  H5  MK1 B 902      16.171  16.170  11.123  1.00  0.00     0.164 HD
ENDBRANCH   7   8
ENDBRANCH   1   7
BRANCH   3  15
HETATM   15  C3  MK1 B 902      15.649  19.911   5.428  1.00 28.85     0.242 C 
HETATM   16  O1  MK1 B 902      14.544  19.439   5.663  1.00 29.59    -0.271 OA
HETATM   17  N2  MK1 B 902      16.399  19.501   4.424  1.00 22.29    -0.351 N 
HETATM   18  H2  MK1 B 902      17.325  19.927   4.379  1.00  0.00     0.163 HD
BRANCH  17  19
HETATM   19  C4  MK1 B 902      16.123  18.556   3.389  1.00 23.47     0.022 C 
HETATM   20  C7  MK1 B 902      17.321  18.109   2.670  1.00 22.75     0.037 C 
HETATM   21  C5  MK1 B 902      15.284  19.288   2.325  1.00 27.66     0.037 C 
HETATM   22  C6  MK1 B 902      15.456  17.428   3.838  1.00 21.71     0.037 C 
ENDBRANCH  17  19
ENDBRANCH   3  15
BRANCH   4  23
HETATM   23  C10 MK1 B 902      15.274  23.017   5.126  1.00 20.86     0.149 C 
BRANCH  23  24
HETATM   24  C11 MK1 B 902      13.882  23.034   4.492  1.00 21.68     0.136 C 
BRANCH  24  25
HETATM   25  O2  MK1 B 902      14.274  22.402   3.310  1.00 15.87    -0.394 OA
HETATM   26  H2  MK1 B 902      14.170  21.465   3.430  1.00  0.00     0.210 HD
ENDBRANCH  24  25
BRANCH  24  27
HETATM   27  C12 MK1 B 902      12.666  22.276   5.056  1.00 21.49     0.047 C 
BRANCH  27  28
HETATM   28  C13 MK1 B 902      11.386  23.031   5.445  1.00 26.89     0.084 C 
BRANCH  28  29
HETATM   29  C21 MK1 B 902      10.308  22.918   4.375  1.00 29.35     0.222 C 
HETATM   30  N4  MK1 B 902       9.809  24.074   3.944  1.00 31.19    -0.350 N 
HETATM   31  H4  MK1 B 902       9.975  24.921   4.487  1.00  0.00     0.163 HD
HETATM   32  O3  MK1 B 902      10.022  21.817   3.880  1.00 32.66    -0.273 OA
BRANCH  30  33
HETATM   33  C22 MK1 B 902       9.031  24.158   2.720  1.00 29.22     0.147 C 
HETATM   34  C30 MK1 B 902       7.489  24.015   2.813  1.00 31.86    -0.027 A 
HETATM   35  C29 MK1 B 902       6.670  23.243   3.575  1.00 27.70     0.010 A 
HETATM   36  C25 MK1 B 902       6.777  24.970   1.814  1.00 31.29    -0.047 A 
HETATM   37  C28 MK1 B 902       5.288  23.315   3.462  1.00 29.01     0.001 A 
HETATM   38  C27 MK1 B 902       4.656  24.191   2.566  1.00 28.00     0.001 A 
HETATM   39  C26 MK1 B 902       5.406  25.028   1.731  1.00 32.00     0.008 A 
HETATM   40  C24 MK1 B 902       7.956  25.665   1.180  1.00 32.05     0.073 C 
HETATM   41  C23 MK1 B 902       9.192  25.505   2.035  1.00 28.82     0.149 C 
BRANCH  41  42
HETATM   42  O4  MK1 B 902       9.361  26.531   3.001  1.00 28.32    -0.393 OA
HETATM   43  H4  MK1 B 902      10.077  27.104   2.751  1.00  0.00     0.210 HD
ENDBRANCH  41  42
ENDBRANCH  30  33
ENDBRANCH  28  29
BRANCH  28  44
HETATM   44  C14 MK1 B 902      11.651  24.519   5.730  1.00 28.67     0.052 C 
BRANCH  44  45
HETATM   45  C15 MK1 B 902      11.253  24.914   7.104  1.00 26.89    -0.057 A 
HETATM   46  C16 MK1 B 902       9.970  24.693   7.609  1.00 29.22     0.007 A 
HETATM   47  C17 MK1 B 902       9.631  25.112   8.887  1.00 29.22     0.001 A 
HETATM   48  C18 MK1 B 902      10.596  25.761   9.660  1.00 30.97     0.000 A 
HETATM   49  C19 MK1 B 902      11.886  25.978   9.161  1.00 29.25     0.001 A 
HETATM   50  C20 MK1 B 902      12.212  25.550   7.874  1.00 29.96     0.007 A 
ENDBRANCH  44  45
ENDBRANCH  28  44
ENDBRANCH  27  28
ENDBRANCH  24  27
ENDBRANCH  23  24
ENDBRANCH   4  23
TORSDOF 14
ENDMDL
MODEL 3
REMARK VINA RESULT:     -10.3      2.051     10.999
REMARK  14 active torsions:
REMARK  status: ('A' for Active; 'I' for Inactive)
REMARK    1  A    between atoms: N1_1  and  C31_43 
REMARK    2  A    between atoms: C2_3  and  C3_4 
REMARK       I    between atoms: C3_4  and  N2_6 
REMARK    3  A    between atoms: N2_6  and  C4_8 
REMARK    4  A    between atoms: N3_12  and  C10_15 
REMARK    5  A    between atoms: C10_15  and  C11_16 
REMARK    6  A    between atoms: C11_16  and  O2_17 
REMARK    7  A    between atoms: C11_16  and  C12_19 
REMARK    8  A    between atoms: C12_19  and  C13_20 
REMARK    9  A    between atoms: C13_20  and  C21_28 
REMARK   10  A    between atoms: C13_20  and  C14_21 
REMARK   11  A    between atoms: C14_21  and  C15_22 
REMARK       I    between atoms: C21_28  and  N4_30 
REMARK   12  A    between atoms: N4_30  and  C22_32 
REMARK   13  A    between atoms: C23_33  and  O4_34 
REMARK   14  A    between atoms: C31_43  and  C32_44 
ROOT
HETATM    1  N1  MK1 B 902      16.100  21.197   9.087  1.00 28.25     0.096 N 
HETATM    2  C1  MK1 B 902      15.672  20.529   7.829  1.00 30.30     0.307 C 
HETATM    3  C2  MK1 B 902      15.915  21.166   6.475  1.00 27.27     0.200 C 
HETATM    4  N3  MK1 B 902      15.193  22.478   6.622  1.00 28.91    -0.395 N 
HETATM    5  C8  MK1 B 902      15.300  23.217   7.905  1.00 26.24     0.148 C 
HETATM    6  C9  MK1 B 902      15.401  22.400   9.177  1.00 27.47     0.292 C 
ENDROOT
BRANCH   1   7
HETATM    7  C31 MK1 B 902      16.094  20.390  10.313  1.00 36.25     0.312 C 
BRANCH   7   8
HETATM    8  C32 MK1 B 902      17.015  19.175  10.473  1.00 42.75    -0.015 A 
HETATM    9  C36 MK1 B 902      18.375  19.389  10.402  1.00 44.71     0.011 A 
HETATM   10  C35 MK1 B 902      19.216  18.287  10.527  1.00 49.34     0.018 A 
HETATM   11  C34 MK1 B 902      18.673  17.013  10.715  1.00 50.60     0.087 A 
HETATM   12  N5  MK1 B 902      17.315  16.710  10.799  1.00 51.38    -0.375 N 
HETATM   13  C33 MK1 B 902      16.536  17.871  10.664  1.00 47.41     0.096 A 
HETATM   14  H5  MK1 B 902      16.938  15.772  10.937  1.00  0.00     0.164 HD
ENDBRANCH   7   8
ENDBRANCH   1   7
BRANCH   3  15
HETATM   15  C3  MK1 B 902      15.317  20.278   5.419  1.00 28.85     0.242 C 
HETATM   16  O1  MK1 B 902      14.116  20.038   5.421  1.00 29.59    -0.271 OA
HETATM   17  N2  MK1 B 902      16.142  19.776   4.522  1.00 22.29    -0.351 N 
HETATM   18  H2  MK1 B 902      17.126  19.999   4.672  1.00  0.00     0.163 HD
BRANCH  17  19
HETATM   19  C4  MK1 B 902      15.880  18.970   3.373  1.00 23.47     0.022 C 
HETATM   20  C7  MK1 B 902      15.274  17.673   3.693  1.00 22.75     0.037 C 
HETATM   21  C5  MK1 B 902      17.243  18.617   2.750  1.00 27.66     0.037 C 
HETATM   22  C6  MK1 B 902      15.069  19.594   2.437  1.00 21.71     0.037 C 
ENDBRANCH  17  19
ENDBRANCH   3  15
BRANCH   4  23
HETATM   23  C10 MK1 B 902      15.285  23.420   5.524  1.00 20.86     0.149 C 
BRANCH  23  24
HETATM   24  C11 MK1 B 902      13.942  24.012   5.094  1.00 21.68     0.136 C 
BRANCH  24  25
HETATM   25  O2  MK1 B 902      14.486  25.181   4.558  1.00 15.87    -0.394 OA
HETATM   26  H2  MK1 B 902      14.835  24.976   3.698  1.00  0.00     0.210 HD
ENDBRANCH  24  25
BRANCH  24  27
HETATM   27  C12 MK1 B 902      13.022  23.385   4.030  1.00 21.49     0.047 C 
BRANCH  27  28
HETATM   28  C13 MK1 B 902      11.745  24.107   3.578  1.00 26.89     0.084 C 
BRANCH  28  29
HETATM   29  C21 MK1 B 902      10.827  24.434   4.749  1.00 29.35     0.222 C 
HETATM   30  N4  MK1 B 902      10.369  25.683   4.783  1.00 31.19    -0.350 N 
HETATM   31  H4  MK1 B 902      10.817  26.394   4.204  1.00  0.00     0.163 HD
HETATM   32  O3  MK1 B 902      10.460  23.545   5.532  1.00 32.66    -0.273 OA
BRANCH  30  33
HETATM   33  C22 MK1 B 902       9.245  26.060   5.624  1.00 29.22     0.147 C 
HETATM   34  C30 MK1 B 902       9.540  26.637   7.033  1.00 31.86    -0.027 A 
HETATM   35  C29 MK1 B 902      10.474  26.355   7.979  1.00 27.70     0.010 A 
HETATM   36  C25 MK1 B 902       8.536  27.768   7.396  1.00 31.29    -0.047 A 
HETATM   37  C28 MK1 B 902      10.522  27.043   9.184  1.00 29.01     0.001 A 
HETATM   38  C27 MK1 B 902       9.619  28.071   9.494  1.00 28.00     0.001 A 
HETATM   39  C26 MK1 B 902       8.614  28.439   8.593  1.00 32.00     0.008 A 
HETATM   40  C24 MK1 B 902       7.692  27.824   6.146  1.00 32.05     0.073 C 
HETATM   41  C23 MK1 B 902       8.403  27.155   4.993  1.00 28.82     0.149 C 
BRANCH  41  42
HETATM   42  O4  MK1 B 902       9.225  28.033   4.236  1.00 28.32    -0.393 OA
HETATM   43  H4  MK1 B 902       8.876  28.917   4.265  1.00  0.00     0.210 HD
ENDBRANCH  41  42
ENDBRANCH  30  33
ENDBRANCH  28  29
BRANCH  28  44
HETATM   44  C14 MK1 B 902      10.954  23.295   2.538  1.00 28.67     0.052 C 
BRANCH  44  45
HETATM   45  C15 MK1 B 902       9.630  23.894   2.236  1.00 26.89    -0.057 A 
HETATM   46  C16 MK1 B 902       9.487  25.191   1.737  1.00 29.22     0.007 A 
HETATM   47  C17 MK1 B 902       8.228  25.724   1.505  1.00 29.22     0.001 A 
HETATM   48  C18 MK1 B 902       7.105  24.941   1.781  1.00 30.97     0.000 A 
HETATM   49  C19 MK1 B 902       7.243  23.638   2.274  1.00 29.25     0.001 A 
HETATM   50  C20 MK1 B 902       8.516  23.116   2.502  1.00 29.96     0.007 A 
ENDBRANCH  44  45
ENDBRANCH  28  44
ENDBRANCH  27  28
ENDBRANCH  24  27
ENDBRANCH  23  24
ENDBRANCH   4  23
TORSDOF 14
ENDMDL
MODEL 4
REMARK VINA RESULT:     -10.1      2.098     10.722
REMARK  14 active torsions:
REMARK  status: ('A' for Active; 'I' for Inactive)
REMARK    1  A    between atoms: N1_1  and  C31_43 
REMARK    2  A    between atoms: C2_3  and  C3_4 
REMARK       I    between atoms: C3_4  and  N2_6 
REMARK    3  A    between atoms: N2_6  and  C4_8 
REMARK    4  A    between atoms: N3_12  and  C10_15 
REMARK    5  A    between atoms: C10_15  and  C11_16 
REMARK    6  A    between atoms: C11_16  and  O2_17 
REMARK    7  A    between atoms: C11_16  and  C12_19 
REMARK    8  A    between atoms: C12_19  and  C13_20 
REMARK    9  A    between atoms: C13_20  and  C21_28 
REMARK   10  A    between atoms: C13_20  and  C14_21 
REMARK   11  A    between atoms: C14_21  and  C15_22 
REMARK       I    between atoms: C21_28  and  N4_30 
REMARK   12  A    between atoms: N4_30  and  C22_32 
REMARK   13  A    between atoms: C23_33  and  O4_34 
REMARK   14  A    between atoms: C31_43  and  C32_44 
ROOT
HETATM    1  N1  MK1 B 902      17.269  20.998   8.885  1.00 28.25     0.096 N 
HETATM    2  C1  MK1 B 902      16.954  20.701   7.462  1.00 30.30     0.307 C 
HETATM    3  C2  MK1 B 902      16.004  21.574   6.666  1.00 27.27     0.200 C 
HETATM    4  N3  MK1 B 902      14.748  21.490   7.491  1.00 28.91    -0.395 N 
HETATM    5  C8  MK1 B 902      14.857  21.537   8.971  1.00 26.24     0.148 C 
HETATM    6  C9  MK1 B 902      16.079  20.902   9.604  1.00 27.47     0.292 C 
ENDROOT
BRANCH   1   7
HETATM    7  C31 MK1 B 902      18.407  20.290   9.483  1.00 36.25     0.312 C 
BRANCH   7   8
HETATM    8  C32 MK1 B 902      18.318  18.805   9.853  1.00 42.75    -0.015 A 
HETATM    9  C36 MK1 B 902      17.993  18.489  11.155  1.00 44.71     0.011 A 
HETATM   10  C35 MK1 B 902      17.930  17.142  11.503  1.00 49.34     0.018 A 
HETATM   11  C34 MK1 B 902      18.195  16.161  10.543  1.00 50.60     0.087 A 
HETATM   12  N5  MK1 B 902      18.529  16.394   9.209  1.00 51.38    -0.375 N 
HETATM   13  C33 MK1 B 902      18.571  17.772   8.940  1.00 47.41     0.096 A 
HETATM   14  H5  MK1 B 902      18.718  15.663   8.523  1.00  0.00     0.164 HD
ENDBRANCH   7   8
ENDBRANCH   1   7
BRANCH   3  15
HETATM   15  C3  MK1 B 902      15.849  20.978   5.293  1.00 28.85     0.242 C 
HETATM   16  O1  MK1 B 902      15.681  21.702   4.320  1.00 29.59    -0.271 OA
HETATM   17  N2  MK1 B 902      15.889  19.663   5.205  1.00 22.29    -0.351 N 
HETATM   18  H2  MK1 B 902      15.966  19.175   6.098  1.00  0.00     0.163 HD
BRANCH  17  19
HETATM   19  C4  MK1 B 902      15.842  18.812   4.059  1.00 23.47     0.022 C 
HETATM   20  C7  MK1 B 902      14.972  19.314   2.991  1.00 22.75     0.037 C 
HETATM   21  C5  MK1 B 902      15.186  17.493   4.506  1.00 27.66     0.037 C 
HETATM   22  C6  MK1 B 902      17.089  18.567   3.506  1.00 21.71     0.037 C 
ENDBRANCH  17  19
ENDBRANCH   3  15
BRANCH   4  23
HETATM   23  C10 MK1 B 902      13.617  22.294   7.074  1.00 20.86     0.149 C 
BRANCH  23  24
HETATM   24  C11 MK1 B 902      12.631  21.562   6.161  1.00 21.68     0.136 C 
BRANCH  24  25
HETATM   25  O2  MK1 B 902      11.692  21.312   7.164  1.00 15.87    -0.394 OA
HETATM   26  H2  MK1 B 902      11.491  20.384   7.153  1.00  0.00     0.210 HD
ENDBRANCH  24  25
BRANCH  24  27
HETATM   27  C12 MK1 B 902      11.899  22.219   4.976  1.00 21.49     0.047 C 
BRANCH  27  28
HETATM   28  C13 MK1 B 902      12.577  23.326   4.156  1.00 26.89     0.084 C 
BRANCH  28  29
HETATM   29  C21 MK1 B 902      12.403  24.699   4.792  1.00 29.35     0.222 C 
HETATM   30  N4  MK1 B 902      11.305  24.851   5.529  1.00 31.19    -0.350 N 
HETATM   31  H4  MK1 B 902      10.549  24.172   5.442  1.00  0.00     0.163 HD
HETATM   32  O3  MK1 B 902      13.297  25.554   4.704  1.00 32.66    -0.273 OA
BRANCH  30  33
HETATM   33  C22 MK1 B 902      11.157  25.961   6.454  1.00 29.22     0.147 C 
HETATM   34  C30 MK1 B 902       9.807  26.725   6.480  1.00 31.86    -0.027 A 
HETATM   35  C29 MK1 B 902       8.923  27.088   5.514  1.00 27.70     0.010 A 
HETATM   36  C25 MK1 B 902       9.427  27.140   7.930  1.00 31.29    -0.047 A 
HETATM   37  C28 MK1 B 902       7.758  27.780   5.815  1.00 29.01     0.001 A 
HETATM   38  C27 MK1 B 902       7.419  28.136   7.128  1.00 28.00     0.001 A 
HETATM   39  C26 MK1 B 902       8.260  27.815   8.199  1.00 32.00     0.008 A 
HETATM   40  C24 MK1 B 902      10.583  26.568   8.713  1.00 32.05     0.073 C 
HETATM   41  C23 MK1 B 902      11.310  25.521   7.901  1.00 28.82     0.149 C 
BRANCH  41  42
HETATM   42  O4  MK1 B 902      10.804  24.205   8.071  1.00 28.32    -0.393 OA
HETATM   43  H4  MK1 B 902      11.013  23.672   7.312  1.00  0.00     0.210 HD
ENDBRANCH  41  42
ENDBRANCH  30  33
ENDBRANCH  28  29
BRANCH  28  44
HETATM   44  C14 MK1 B 902      12.058  23.378   2.708  1.00 28.67     0.052 C 
BRANCH  44  45
HETATM   45  C15 MK1 B 902      10.591  23.596   2.638  1.00 26.89    -0.057 A 
HETATM   46  C16 MK1 B 902      10.028  24.835   2.328  1.00 29.22     0.007 A 
HETATM   47  C17 MK1 B 902       8.651  25.002   2.310  1.00 29.22     0.001 A 
HETATM   48  C18 MK1 B 902       7.838  23.908   2.610  1.00 30.97     0.000 A 
HETATM   49  C19 MK1 B 902       8.398  22.661   2.915  1.00 29.25     0.001 A 
HETATM   50  C20 MK1 B 902       9.784  22.509   2.928  1.00 29.96     0.007 A 
ENDBRANCH  44  45
ENDBRANCH  28  44
ENDBRANCH  27  28
ENDBRANCH  24  27
ENDBRANCH  23  24
ENDBRANCH   4  23
TORSDOF 14
ENDMDL
MODEL 5
REMARK VINA RESULT:     -10.0      1.930     10.894
REMARK  14 active torsions:
REMARK  status: ('A' for Active; 'I' for Inactive)
REMARK    1  A    between atoms: N1_1  and  C31_43 
REMARK    2  A    between atoms: C2_3  and  C3_4 
REMARK       I    between atoms: C3_4  and  N2_6 
REMARK    3  A    between atoms: N2_6  and  C4_8 
REMARK    4  A    between atoms: N3_12  and  C10_15 
REMARK    5  A    between atoms: C10_15  and  C11_16 
REMARK    6  A    between atoms: C11_16  and  O2_17 
REMARK    7  A    between atoms: C11_16  and  C12_19 
REMARK    8  A    between atoms: C12_19  and  C13_20 
REMARK    9  A    between atoms: C13_20  and  C21_28 
REMARK   10  A    between atoms: C13_20  and  C14_21 
REMARK   11  A    between atoms: C14_21  and  C15_22 
REMARK       I    between atoms: C21_28  and  N4_30 
REMARK   12  A    between atoms: N4_30  and  C22_32 
REMARK   13  A    between atoms: C23_33  and  O4_34 
REMARK   14  A    between atoms: C31_43  and  C32_44 
ROOT
HETATM    1  N1  MK1 B 902      15.641  23.006   6.933  1.00 28.25     0.096 N 
HETATM    2  C1  MK1 B 902      15.589  21.659   6.304  1.00 30.30     0.307 C 
HETATM    3  C2  MK1 B 902      15.191  21.480   4.853  1.00 27.27     0.200 C 
HETATM    4  N3  MK1 B 902      13.819  22.100   4.834  1.00 28.91    -0.395 N 
HETATM    5  C8  MK1 B 902      13.587  23.351   5.599  1.00 26.24     0.148 C 
HETATM    6  C9  MK1 B 902      14.350  23.532   6.895  1.00 27.47     0.292 C 
ENDROOT
BRANCH   1   7
HETATM    7  C31 MK1 B 902      16.311  23.116   8.234  1.00 36.25     0.312 C 
BRANCH   7   8
HETATM    8  C32 MK1 B 902      16.878  21.882   8.946  1.00 42.75    -0.015 A 
HETATM    9  C36 MK1 B 902      15.998  21.091   9.653  1.00 44.71     0.011 A 
HETATM   10  C35 MK1 B 902      16.510  19.980  10.319  1.00 49.34     0.018 A 
HETATM   11  C34 MK1 B 902      17.878  19.701  10.258  1.00 50.60     0.087 A 
HETATM   12  N5  MK1 B 902      18.833  20.446   9.569  1.00 51.38    -0.375 N 
HETATM   13  C33 MK1 B 902      18.239  21.545   8.926  1.00 47.41     0.096 A 
HETATM   14  H5  MK1 B 902      19.828  20.224   9.536  1.00  0.00     0.164 HD
ENDBRANCH   7   8
ENDBRANCH   1   7
BRANCH   3  15
HETATM   15  C3  MK1 B 902      15.177  20.008   4.542  1.00 28.85     0.242 C 
HETATM   16  O1  MK1 B 902      14.450  19.250   5.172  1.00 29.59    -0.271 OA
HETATM   17  N2  MK1 B 902      15.982  19.591   3.585  1.00 22.29    -0.351 N 
HETATM   18  H2  MK1 B 902      16.584  20.313   3.187  1.00  0.00     0.163 HD
BRANCH  17  19
HETATM   19  C4  MK1 B 902      16.149  18.291   3.018  1.00 23.47     0.022 C 
HETATM   20  C7  MK1 B 902      17.090  18.259   1.894  1.00 22.75     0.037 C 
HETATM   21  C5  MK1 B 902      14.795  17.893   2.402  1.00 27.66     0.037 C 
HETATM   22  C6  MK1 B 902      16.559  17.339   3.938  1.00 21.71     0.037 C 
ENDBRANCH  17  19
ENDBRANCH   3  15
BRANCH   4  23
HETATM   23  C10 MK1 B 902      13.143  22.194   3.556  1.00 20.86     0.149 C 
BRANCH  23  24
HETATM   24  C11 MK1 B 902      11.899  23.083   3.569  1.00 21.68     0.136 C 
BRANCH  24  25
HETATM   25  O2  MK1 B 902      12.193  23.730   2.368  1.00 15.87    -0.394 OA
HETATM   26  H2  MK1 B 902      12.889  24.356   2.534  1.00  0.00     0.210 HD
ENDBRANCH  24  25
BRANCH  24  27
HETATM   27  C12 MK1 B 902      10.456  22.552   3.483  1.00 21.49     0.047 C 
BRANCH  27  28
HETATM   28  C13 MK1 B 902       9.282  23.513   3.251  1.00 26.89     0.084 C 
BRANCH  28  29
HETATM   29  C21 MK1 B 902       9.449  24.817   4.022  1.00 29.35     0.222 C 
HETATM   30  N4  MK1 B 902       9.596  24.687   5.338  1.00 31.19    -0.350 N 
HETATM   31  H4  MK1 B 902       9.356  23.800   5.780  1.00  0.00     0.163 HD
HETATM   32  O3  MK1 B 902       9.553  25.897   3.420  1.00 32.66    -0.273 OA
BRANCH  30  33
HETATM   33  C22 MK1 B 902      10.088  25.779   6.160  1.00 29.22     0.147 C 
HETATM   34  C30 MK1 B 902       9.062  26.610   6.975  1.00 31.86    -0.027 A 
HETATM   35  C29 MK1 B 902       7.800  27.042   6.719  1.00 27.70     0.010 A 
HETATM   36  C25 MK1 B 902       9.640  27.005   8.364  1.00 31.29    -0.047 A 
HETATM   37  C28 MK1 B 902       7.080  27.784   7.646  1.00 29.01     0.001 A 
HETATM   38  C27 MK1 B 902       7.607  28.123   8.902  1.00 28.00     0.001 A 
HETATM   39  C26 MK1 B 902       8.900  27.732   9.267  1.00 32.00     0.008 A 
HETATM   40  C24 MK1 B 902      11.000  26.355   8.313  1.00 32.05     0.073 C 
HETATM   41  C23 MK1 B 902      11.044  25.295   7.237  1.00 28.82     0.149 C 
BRANCH  41  42
HETATM   42  O4  MK1 B 902      10.664  24.002   7.687  1.00 28.32    -0.393 OA
HETATM   43  H4  MK1 B 902      10.740  23.947   8.633  1.00  0.00     0.210 HD
ENDBRANCH  41  42
ENDBRANCH  30  33
ENDBRANCH  28  29
BRANCH  28  44
HETATM   44  C14 MK1 B 902       7.930  22.883   3.628  1.00 28.67     0.052 C 
BRANCH  44  45
HETATM   45  C15 MK1 B 902       6.781  23.589   3.006  1.00 26.89    -0.057 A 
HETATM   46  C16 MK1 B 902       5.539  23.703   3.634  1.00 29.22     0.007 A 
HETATM   47  C17 MK1 B 902       4.483  24.340   3.000  1.00 29.22     0.001 A 
HETATM   48  C18 MK1 B 902       4.683  24.864   1.721  1.00 30.97     0.000 A 
HETATM   49  C19 MK1 B 902       5.929  24.759   1.091  1.00 29.25     0.001 A 
HETATM   50  C20 MK1 B 902       6.982  24.116   1.742  1.00 29.96     0.007 A 
ENDBRANCH  44  45
ENDBRANCH  28  44
ENDBRANCH  27  28
ENDBRANCH  24  27
ENDBRANCH  23  24
ENDBRANCH   4  23
TORSDOF 14
ENDMDL
MODEL 6
REMARK VINA RESULT:     -10.0      2.047     10.246
REMARK  14 active torsions:
REMARK  status: ('A' for Active; 'I' for Inactive)
REMARK    1  A    between atoms: N1_1  and  C31_43 
REMARK    2  A    between atoms: C2_3  and  C3_4 
REMARK       I    between atoms: C3_4  and  N2_6 
REMARK    3  A    between atoms: N2_6  and  C4_8 
REMARK    4  A    between atoms: N3_12  and  C10_15 
REMARK    5  A    between atoms: C10_15  and  C11_16 
REMARK    6  A    between atoms: C11_16  and  O2_17 
REMARK    7  A    between atoms: C11_16  and  C12_19 
REMARK    8  A    between atoms: C12_19  and  C13_20 
REMARK    9  A    between atoms: C13_20  and  C21_28 
REMARK   10  A    between atoms: C13_20  and  C14_21 
REMARK   11  A    between atoms: C14_21  and  C15_22 
REMARK       I    between atoms: C21_28  and  N4_30 
REMARK   12  A    between atoms: N4_30  and  C22_32 
REMARK   13  A    between atoms: C23_33  and  O4_34 
REMARK   14  A    between atoms: C31_43  and  C32_44 
ROOT
HETATM    1  N1  MK1 B 902      14.510  19.640   3.859  1.00 28.25     0.096 N 
HETATM    2  C1  MK1 B 902      14.934  20.097   5.209  1.00 30.30     0.307 C 
HETATM    3  C2  MK1 B 902      14.278  21.287   5.880  1.00 27.27     0.200 C 
HETATM    4  N3  MK1 B 902      14.526  22.379   4.875  1.00 28.91    -0.395 N 
HETATM    5  C8  MK1 B 902      14.380  22.072   3.431  1.00 26.24     0.148 C 
HETATM    6  C9  MK1 B 902      14.765  20.682   2.968  1.00 27.47     0.292 C 
ENDROOT
BRANCH   1   7
HETATM    7  C31 MK1 B 902      14.984  18.323   3.416  1.00 36.25     0.312 C 
BRANCH   7   8
HETATM    8  C32 MK1 B 902      16.427  17.868   3.666  1.00 42.75    -0.015 A 
HETATM    9  C36 MK1 B 902      16.672  17.109   4.790  1.00 44.71     0.011 A 
HETATM   10  C35 MK1 B 902      17.984  16.709   5.034  1.00 49.34     0.018 A 
HETATM   11  C34 MK1 B 902      19.001  17.082   4.150  1.00 50.60     0.087 A 
HETATM   12  N5  MK1 B 902      18.839  17.845   2.995  1.00 51.38    -0.375 N 
HETATM   13  C33 MK1 B 902      17.493  18.206   2.820  1.00 47.41     0.096 A 
HETATM   14  H5  MK1 B 902      19.596  18.106   2.362  1.00  0.00     0.164 HD
ENDBRANCH   7   8
ENDBRANCH   1   7
BRANCH   3  15
HETATM   15  C3  MK1 B 902      14.967  21.529   7.196  1.00 28.85     0.242 C 
HETATM   16  O1  MK1 B 902      14.399  22.147   8.087  1.00 29.59    -0.271 OA
HETATM   17  N2  MK1 B 902      16.193  21.060   7.324  1.00 22.29    -0.351 N 
HETATM   18  H2  MK1 B 902      16.575  20.624   6.485  1.00  0.00     0.163 HD
BRANCH  17  19
HETATM   19  C4  MK1 B 902      17.071  21.064   8.450  1.00 23.47     0.022 C 
HETATM   20  C7  MK1 B 902      17.448  22.410   8.894  1.00 22.75     0.037 C 
HETATM   21  C5  MK1 B 902      18.394  20.424   7.990  1.00 27.66     0.037 C 
HETATM   22  C6  MK1 B 902      16.563  20.386   9.546  1.00 21.71     0.037 C 
ENDBRANCH  17  19
ENDBRANCH   3  15
BRANCH   4  23
HETATM   23  C10 MK1 B 902      13.947  23.681   5.144  1.00 20.86     0.149 C 
BRANCH  23  24
HETATM   24  C11 MK1 B 902      12.458  23.644   5.489  1.00 21.68     0.136 C 
BRANCH  24  25
HETATM   25  O2  MK1 B 902      12.609  24.207   6.758  1.00 15.87    -0.394 OA
HETATM   26  H2  MK1 B 902      12.389  23.544   7.401  1.00  0.00     0.210 HD
ENDBRANCH  24  25
BRANCH  24  27
HETATM   27  C12 MK1 B 902      11.377  24.444   4.739  1.00 21.49     0.047 C 
BRANCH  27  28
HETATM   28  C13 MK1 B 902       9.912  24.396   5.195  1.00 26.89     0.084 C 
BRANCH  28  29
HETATM   29  C21 MK1 B 902       9.029  23.638   4.211  1.00 29.35     0.222 C 
HETATM   30  N4  MK1 B 902       7.810  24.140   4.035  1.00 31.19    -0.350 N 
HETATM   31  H4  MK1 B 902       7.449  24.818   4.706  1.00  0.00     0.163 HD
HETATM   32  O3  MK1 B 902       9.487  22.693   3.551  1.00 32.66    -0.273 OA
BRANCH  30  33
HETATM   33  C22 MK1 B 902       6.979  23.744   2.911  1.00 29.22     0.147 C 
HETATM   34  C30 MK1 B 902       5.468  23.498   3.160  1.00 31.86    -0.027 A 
HETATM   35  C29 MK1 B 902       4.771  22.947   4.189  1.00 27.70     0.010 A 
HETATM   36  C25 MK1 B 902       4.613  24.000   1.962  1.00 31.29    -0.047 A 
HETATM   37  C28 MK1 B 902       3.387  22.850   4.163  1.00 29.01     0.001 A 
HETATM   38  C27 MK1 B 902       2.625  23.320   3.082  1.00 28.00     0.001 A 
HETATM   39  C26 MK1 B 902       3.242  23.901   1.968  1.00 32.00     0.008 A 
HETATM   40  C24 MK1 B 902       5.681  24.554   1.051  1.00 32.05     0.073 C 
HETATM   41  C23 MK1 B 902       6.961  24.799   1.817  1.00 28.82     0.149 C 
BRANCH  41  42
HETATM   42  O4  MK1 B 902       7.052  26.098   2.385  1.00 28.32    -0.393 OA
HETATM   43  H4  MK1 B 902       7.218  26.742   1.707  1.00  0.00     0.210 HD
ENDBRANCH  41  42
ENDBRANCH  30  33
ENDBRANCH  28  29
BRANCH  28  44
HETATM   44  C14 MK1 B 902       9.322  25.801   5.412  1.00 28.67     0.052 C 
BRANCH  44  45
HETATM   45  C15 MK1 B 902       9.397  26.235   6.830  1.00 26.89    -0.057 A 
HETATM   46  C16 MK1 B 902       9.597  25.339   7.882  1.00 29.22     0.007 A 
HETATM   47  C17 MK1 B 902       9.623  25.785   9.195  1.00 29.22     0.001 A 
HETATM   48  C18 MK1 B 902       9.444  27.147   9.446  1.00 30.97     0.000 A 
HETATM   49  C19 MK1 B 902       9.252  28.050   8.393  1.00 29.25     0.001 A 
HETATM   50  C20 MK1 B 902       9.228  27.586   7.078  1.00 29.96     0.007 A 
ENDBRANCH  44  45
ENDBRANCH  28  44
ENDBRANCH  27  28
ENDBRANCH  24  27
ENDBRANCH  23  24
ENDBRANCH   4  23
TORSDOF 14
ENDMDL
MODEL 7
REMARK VINA RESULT:      -9.9      1.955     10.310
REMARK  14 active torsions:
REMARK  status: ('A' for Active; 'I' for Inactive)
REMARK    1  A    between atoms: N1_1  and  C31_43 
REMARK    2  A    between atoms: C2_3  and  C3_4 
REMARK       I    between atoms: C3_4  and  N2_6 
REMARK    3  A    between atoms: N2_6  and  C4_8 
REMARK    4  A    between atoms: N3_12  and  C10_15 
REMARK    5  A    between atoms: C10_15  and  C11_16 
REMARK    6  A    between atoms: C11_16  and  O2_17 
REMARK    7  A    between atoms: C11_16  and  C12_19 
REMARK    8  A    between atoms: C12_19  and  C13_20 
REMARK    9  A    between atoms: C13_20  and  C21_28 
REMARK   10  A    between atoms: C13_20  and  C14_21 
REMARK   11  A    between atoms: C14_21  and  C15_22 
REMARK       I    between atoms: C21_28  and  N4_30 
REMARK   12  A    between atoms: N4_30  and  C22_32 
REMARK   13  A    between atoms: C23_33  and  O4_34 
REMARK   14  A    between atoms: C31_43  and  C32_44 
ROOT
HETATM    1  N1  MK1 B 902      14.551  19.343   3.742  1.00 28.25     0.096 N 
HETATM    2  C1  MK1 B 902      14.925  19.871   5.082  1.00 30.30     0.307 C 
HETATM    3  C2  MK1 B 902      14.191  21.044   5.700  1.00 27.27     0.200 C 
HETATM    4  N3  MK1 B 902      14.395  22.113   4.660  1.00 28.91    -0.395 N 
HETATM    5  C8  MK1 B 902      14.292  21.748   3.225  1.00 26.24     0.148 C 
HETATM    6  C9  MK1 B 902      14.762  20.366   2.818  1.00 27.47     0.292 C 
ENDROOT
BRANCH   1   7
HETATM    7  C31 MK1 B 902      15.106  18.041   3.354  1.00 36.25     0.312 C 
BRANCH   7   8
HETATM    8  C32 MK1 B 902      16.555  17.660   3.682  1.00 42.75    -0.015 A 
HETATM    9  C36 MK1 B 902      16.782  16.944   4.838  1.00 44.71     0.011 A 
HETATM   10  C35 MK1 B 902      18.097  16.612   5.151  1.00 49.34     0.018 A 
HETATM   11  C34 MK1 B 902      19.137  17.009   4.305  1.00 50.60     0.087 A 
HETATM   12  N5  MK1 B 902      18.995  17.733   3.122  1.00 51.38    -0.375 N 
HETATM   13  C33 MK1 B 902      17.643  18.026   2.877  1.00 47.41     0.096 A 
HETATM   14  H5  MK1 B 902      19.767  18.012   2.517  1.00  0.00     0.164 HD
ENDBRANCH   7   8
ENDBRANCH   1   7
BRANCH   3  15
HETATM   15  C3  MK1 B 902      14.842  21.371   7.016  1.00 28.85     0.242 C 
HETATM   16  O1  MK1 B 902      14.191  21.882   7.919  1.00 29.59    -0.271 OA
HETATM   17  N2  MK1 B 902      16.126  21.094   7.133  1.00 22.29    -0.351 N 
HETATM   18  H2  MK1 B 902      16.566  20.733   6.286  1.00  0.00     0.163 HD
BRANCH  17  19
HETATM   19  C4  MK1 B 902      17.000  21.217   8.256  1.00 23.47     0.022 C 
HETATM   20  C7  MK1 B 902      18.349  20.696   8.009  1.00 22.75     0.037 C 
HETATM   21  C5  MK1 B 902      16.434  20.315   9.368  1.00 27.66     0.037 C 
HETATM   22  C6  MK1 B 902      17.129  22.520   8.711  1.00 21.71     0.037 C 
ENDBRANCH  17  19
ENDBRANCH   3  15
BRANCH   4  23
HETATM   23  C10 MK1 B 902      13.739  23.388   4.873  1.00 20.86     0.149 C 
BRANCH  23  24
HETATM   24  C11 MK1 B 902      12.220  23.346   4.707  1.00 21.68     0.136 C 
BRANCH  24  25
HETATM   25  O2  MK1 B 902      11.949  23.192   6.068  1.00 15.87    -0.394 OA
HETATM   26  H2  MK1 B 902      11.232  22.575   6.158  1.00  0.00     0.210 HD
ENDBRANCH  24  25
BRANCH  24  27
HETATM   27  C12 MK1 B 902      11.374  24.521   4.184  1.00 21.49     0.047 C 
BRANCH  27  28
HETATM   28  C13 MK1 B 902      10.107  24.965   4.929  1.00 26.89     0.084 C 
BRANCH  28  29
HETATM   29  C21 MK1 B 902       8.919  25.136   3.989  1.00 29.35     0.222 C 
HETATM   30  N4  MK1 B 902       7.733  24.836   4.511  1.00 31.19    -0.350 N 
HETATM   31  H4  MK1 B 902       7.690  24.302   5.378  1.00  0.00     0.163 HD
HETATM   32  O3  MK1 B 902       9.072  25.631   2.863  1.00 32.66    -0.273 OA
BRANCH  30  33
HETATM   33  C22 MK1 B 902       6.495  25.251   3.873  1.00 29.22     0.147 C 
HETATM   34  C30 MK1 B 902       5.299  24.263   3.870  1.00 31.86    -0.027 A 
HETATM   35  C29 MK1 B 902       5.205  22.914   3.738  1.00 27.70     0.010 A 
HETATM   36  C25 MK1 B 902       3.951  25.015   4.061  1.00 31.29    -0.047 A 
HETATM   37  C28 MK1 B 902       3.981  22.260   3.778  1.00 29.01     0.001 A 
HETATM   38  C27 MK1 B 902       2.773  22.948   3.965  1.00 28.00     0.001 A 
HETATM   39  C26 MK1 B 902       2.754  24.340   4.108  1.00 32.00     0.008 A 
HETATM   40  C24 MK1 B 902       4.426  26.441   4.196  1.00 32.05     0.073 C 
HETATM   41  C23 MK1 B 902       5.898  26.482   4.534  1.00 28.82     0.149 C 
BRANCH  41  42
HETATM   42  O4  MK1 B 902       6.169  26.471   5.928  1.00 28.32    -0.393 OA
HETATM   43  H4  MK1 B 902       6.149  27.356   6.275  1.00  0.00     0.210 HD
ENDBRANCH  41  42
ENDBRANCH  30  33
ENDBRANCH  28  29
BRANCH  28  44
HETATM   44  C14 MK1 B 902      10.318  26.276   5.707  1.00 28.67     0.052 C 
BRANCH  44  45
HETATM   45  C15 MK1 B 902      10.306  26.071   7.178  1.00 26.89    -0.057 A 
HETATM   46  C16 MK1 B 902      11.468  26.104   7.951  1.00 29.22     0.007 A 
HETATM   47  C17 MK1 B 902      11.414  25.871   9.318  1.00 29.22     0.001 A 
HETATM   48  C18 MK1 B 902      10.176  25.601   9.905  1.00 30.97     0.000 A 
HETATM   49  C19 MK1 B 902       9.007  25.575   9.134  1.00 29.25     0.001 A 
HETATM   50  C20 MK1 B 902       9.078  25.812   7.762  1.00 29.96     0.007 A 
ENDBRANCH  44  45
ENDBRANCH  28  44
ENDBRANCH  27  28
ENDBRANCH  24  27
ENDBRANCH  23  24
ENDBRANCH   4  23
TORSDOF 14
ENDMDL
MODEL 8
REMARK VINA RESULT:      -9.7      1.562      4.388
REMARK  14 active torsions:
REMARK  status: ('A' for Active; 'I' for Inactive)
REMARK    1  A    between atoms: N1_1  and  C31_43 
REMARK    2  A    between atoms: C2_3  and  C3_4 
REMARK       I    between atoms: C3_4  and  N2_6 
REMARK    3  A    between atoms: N2_6  and  C4_8 
REMARK    4  A    between atoms: N3_12  and  C10_15 
REMARK    5  A    between atoms: C10_15  and  C11_16 
REMARK    6  A    between atoms: C11_16  and  O2_17 
REMARK    7  A    between atoms: C11_16  and  C12_19 
REMARK    8  A    between atoms: C12_19  and  C13_20 
REMARK    9  A    between atoms: C13_20  and  C21_28 
REMARK   10  A    between atoms: C13_20  and  C14_21 
REMARK   11  A    between atoms: C14_21  and  C15_22 
REMARK       I    between atoms: C21_28  and  N4_30 
REMARK   12  A    between atoms: N4_30  and  C22_32 
REMARK   13  A    between atoms: C23_33  and  O4_34 
REMARK   14  A    between atoms: C31_43  and  C32_44 
ROOT
HETATM    1  N1  MK1 B 902       9.207  23.767   3.099  1.00 28.25     0.096 N 
HETATM    2  C1  MK1 B 902       9.255  24.679   4.273  1.00 30.30     0.307 C 
HETATM    3  C2  MK1 B 902      10.552  24.950   5.009  1.00 27.27     0.200 C 
HETATM    4  N3  MK1 B 902      10.961  23.564   5.428  1.00 28.91    -0.395 N 
HETATM    5  C8  MK1 B 902      10.782  22.443   4.472  1.00 26.24     0.148 C 
HETATM    6  C9  MK1 B 902       9.588  22.501   3.540  1.00 27.47     0.292 C 
ENDROOT
BRANCH   1   7
HETATM    7  C31 MK1 B 902       7.991  23.792   2.278  1.00 36.25     0.312 C 
BRANCH   7   8
HETATM    8  C32 MK1 B 902       6.611  24.030   2.902  1.00 42.75    -0.015 A 
HETATM    9  C36 MK1 B 902       5.990  25.233   2.642  1.00 44.71     0.011 A 
HETATM   10  C35 MK1 B 902       4.746  25.464   3.222  1.00 49.34     0.018 A 
HETATM   11  C34 MK1 B 902       4.167  24.489   4.041  1.00 50.60     0.087 A 
HETATM   12  N5  MK1 B 902       4.725  23.250   4.353  1.00 51.38    -0.375 N 
HETATM   13  C33 MK1 B 902       5.975  23.095   3.731  1.00 47.41     0.096 A 
HETATM   14  H5  MK1 B 902       4.286  22.552   4.953  1.00  0.00     0.164 HD
ENDBRANCH   7   8
ENDBRANCH   1   7
BRANCH   3  15
HETATM   15  C3  MK1 B 902      10.256  25.855   6.174  1.00 28.85     0.242 C 
HETATM   16  O1  MK1 B 902       9.668  26.915   6.000  1.00 29.59    -0.271 OA
HETATM   17  N2  MK1 B 902      10.669  25.457   7.361  1.00 22.29    -0.351 N 
HETATM   18  H2  MK1 B 902      11.206  24.589   7.359  1.00  0.00     0.163 HD
BRANCH  17  19
HETATM   19  C4  MK1 B 902      10.487  26.045   8.649  1.00 23.47     0.022 C 
HETATM   20  C7  MK1 B 902      10.135  27.468   8.599  1.00 22.75     0.037 C 
HETATM   21  C5  MK1 B 902      11.853  26.010   9.357  1.00 27.66     0.037 C 
HETATM   22  C6  MK1 B 902       9.529  25.401   9.416  1.00 21.71     0.037 C 
ENDBRANCH  17  19
ENDBRANCH   3  15
BRANCH   4  23
HETATM   23  C10 MK1 B 902      12.237  23.416   6.098  1.00 20.86     0.149 C 
BRANCH  23  24
HETATM   24  C11 MK1 B 902      13.413  24.048   5.352  1.00 21.68     0.136 C 
BRANCH  24  25
HETATM   25  O2  MK1 B 902      13.598  25.087   6.266  1.00 15.87    -0.394 OA
HETATM   26  H2  MK1 B 902      12.779  25.221   6.728  1.00  0.00     0.210 HD
ENDBRANCH  24  25
BRANCH  24  27
HETATM   27  C12 MK1 B 902      14.772  23.357   5.136  1.00 21.49     0.047 C 
BRANCH  27  28
HETATM   28  C13 MK1 B 902      15.041  21.962   5.718  1.00 26.89     0.084 C 
BRANCH  28  29
HETATM   29  C21 MK1 B 902      15.470  22.023   7.178  1.00 29.35     0.222 C 
HETATM   30  N4  MK1 B 902      16.437  21.177   7.524  1.00 31.19    -0.350 N 
HETATM   31  H4  MK1 B 902      16.664  20.400   6.904  1.00  0.00     0.163 HD
HETATM   32  O3  MK1 B 902      15.011  22.892   7.935  1.00 32.66    -0.273 OA
BRANCH  30  33
HETATM   33  C22 MK1 B 902      17.177  21.333   8.765  1.00 29.22     0.147 C 
HETATM   34  C30 MK1 B 902      17.325  20.101   9.695  1.00 31.86    -0.027 A 
HETATM   35  C29 MK1 B 902      16.493  19.080  10.029  1.00 27.70     0.010 A 
HETATM   36  C25 MK1 B 902      18.731  20.067  10.359  1.00 31.29    -0.047 A 
HETATM   37  C28 MK1 B 902      16.886  18.075  10.903  1.00 29.01     0.001 A 
HETATM   38  C27 MK1 B 902      18.162  18.048  11.485  1.00 28.00     0.001 A 
HETATM   39  C26 MK1 B 902      19.097  19.053  11.213  1.00 32.00     0.008 A 
HETATM   40  C24 MK1 B 902      19.370  21.295   9.758  1.00 32.05     0.073 C 
HETATM   41  C23 MK1 B 902      18.622  21.733   8.520  1.00 28.82     0.149 C 
BRANCH  41  42
HETATM   42  O4  MK1 B 902      19.099  21.142   7.320  1.00 28.32    -0.393 OA
HETATM   43  H4  MK1 B 902      18.440  21.205   6.638  1.00  0.00     0.210 HD
ENDBRANCH  41  42
ENDBRANCH  30  33
ENDBRANCH  28  29
BRANCH  28  44
HETATM   44  C14 MK1 B 902      16.106  21.192   4.918  1.00 28.67     0.052 C 
BRANCH  44  45
HETATM   45  C15 MK1 B 902      15.575  19.939   4.324  1.00 26.89    -0.057 A 
HETATM   46  C16 MK1 B 902      15.470  18.749   5.047  1.00 29.22     0.007 A 
HETATM   47  C17 MK1 B 902      15.002  17.593   4.441  1.00 29.22     0.001 A 
HETATM   48  C18 MK1 B 902      14.639  17.640   3.093  1.00 30.97     0.000 A 
HETATM   49  C19 MK1 B 902      14.735  18.832   2.366  1.00 29.25     0.001 A 
HETATM   50  C20 MK1 B 902      15.207  19.987   2.990  1.00 29.96     0.007 A 
ENDBRANCH  44  45
ENDBRANCH  28  44
ENDBRANCH  27  28
ENDBRANCH  24  27
ENDBRANCH  23  24
ENDBRANCH   4  23
TORSDOF 14
ENDMDL
MODEL 9
REMARK VINA RESULT:      -9.7      2.285      4.306
REMARK  14 active torsions:
REMARK  status: ('A' for Active; 'I' for Inactive)
REMARK    1  A    between atoms: N1_1  and  C31_43 
REMARK    2  A    between atoms: C2_3  and  C3_4 
REMARK       I    between atoms: C3_4  and  N2_6 
REMARK    3  A    between atoms: N2_6  and  C4_8 
REMARK    4  A    between atoms: N3_12  and  C10_15 
REMARK    5  A    between atoms: C10_15  and  C11_16 
REMARK    6  A    between atoms: C11_16  and  O2_17 
REMARK    7  A    between atoms: C11_16  and  C12_19 
REMARK    8  A    between atoms: C12_19  and  C13_20 
REMARK    9  A    between atoms: C13_20  and  C21_28 
REMARK   10  A    between atoms: C13_20  and  C14_21 
REMARK   11  A    between atoms: C14_21  and  C15_22 
REMARK       I    between atoms: C21_28  and  N4_30 
REMARK   12  A    between atoms: N4_30  and  C22_32 
REMARK   13  A    between atoms: C23_33  and  O4_34 
REMARK   14  A    between atoms: C31_43  and  C32_44 
ROOT
HETATM    1  N1  MK1 B 902       6.862  24.880   1.909  1.00 28.25     0.096 N 
HETATM    2  C1  MK1 B 902       6.872  25.711   3.143  1.00 30.30     0.307 C 
HETATM    3  C2  MK1 B 902       8.136  26.401   3.618  1.00 27.27     0.200 C 
HETATM    4  N3  MK1 B 902       9.074  25.236   3.786  1.00 28.91    -0.395 N 
HETATM    5  C8  MK1 B 902       9.066  24.156   2.768  1.00 26.24     0.148 C 
HETATM    6  C9  MK1 B 902       7.740  23.817   2.117  1.00 27.47     0.292 C 
ENDROOT
BRANCH   1   7
HETATM    7  C31 MK1 B 902       5.553  24.498   1.367  1.00 36.25     0.312 C 
BRANCH   7   8
HETATM    8  C32 MK1 B 902       4.323  24.360   2.272  1.00 42.75    -0.015 A 
HETATM    9  C36 MK1 B 902       3.408  25.391   2.269  1.00 44.71     0.011 A 
HETATM   10  C35 MK1 B 902       2.299  25.280   3.104  1.00 49.34     0.018 A 
HETATM   11  C34 MK1 B 902       2.144  24.149   3.912  1.00 50.60     0.087 A 
HETATM   12  N5  MK1 B 902       3.020  23.066   3.974  1.00 51.38    -0.375 N 
HETATM   13  C33 MK1 B 902       4.108  23.253   3.106  1.00 47.41     0.096 A 
HETATM   14  H5  MK1 B 902       2.888  22.248   4.570  1.00  0.00     0.164 HD
ENDBRANCH   7   8
ENDBRANCH   1   7
BRANCH   3  15
HETATM   15  C3  MK1 B 902       7.833  27.105   4.913  1.00 28.85     0.242 C 
HETATM   16  O1  MK1 B 902       8.627  27.912   5.379  1.00 29.59    -0.271 OA
HETATM   17  N2  MK1 B 902       6.697  26.799   5.509  1.00 22.29    -0.351 N 
HETATM   18  H2  MK1 B 902       6.158  26.062   5.052  1.00  0.00     0.163 HD
BRANCH  17  19
HETATM   19  C4  MK1 B 902       6.100  27.332   6.691  1.00 23.47     0.022 C 
HETATM   20  C7  MK1 B 902       6.834  27.004   7.918  1.00 22.75     0.037 C 
HETATM   21  C5  MK1 B 902       4.737  26.637   6.859  1.00 27.66     0.037 C 
HETATM   22  C6  MK1 B 902       5.938  28.708   6.652  1.00 21.71     0.037 C 
ENDBRANCH  17  19
ENDBRANCH   3  15
BRANCH   4  23
HETATM   23  C10 MK1 B 902      10.445  25.528   4.155  1.00 20.86     0.149 C 
BRANCH  23  24
HETATM   24  C11 MK1 B 902      11.439  24.424   3.793  1.00 21.68     0.136 C 
BRANCH  24  25
HETATM   25  O2  MK1 B 902      11.871  25.025   2.610  1.00 15.87    -0.394 OA
HETATM   26  H2  MK1 B 902      12.436  25.753   2.840  1.00  0.00     0.210 HD
ENDBRANCH  24  25
BRANCH  24  27
HETATM   27  C12 MK1 B 902      12.683  24.073   4.630  1.00 21.49     0.047 C 
BRANCH  27  28
HETATM   28  C13 MK1 B 902      12.537  23.422   6.013  1.00 26.89     0.084 C 
BRANCH  28  29
HETATM   29  C21 MK1 B 902      12.922  21.948   5.996  1.00 29.35     0.222 C 
HETATM   30  N4  MK1 B 902      13.911  21.626   5.166  1.00 31.19    -0.350 N 
HETATM   31  H4  MK1 B 902      14.185  22.287   4.439  1.00  0.00     0.163 HD
HETATM   32  O3  MK1 B 902      12.409  21.152   6.797  1.00 32.66    -0.273 OA
BRANCH  30  33
HETATM   33  C22 MK1 B 902      14.608  20.356   5.269  1.00 29.22     0.147 C 
HETATM   34  C30 MK1 B 902      15.241  19.756   3.986  1.00 31.86    -0.027 A 
HETATM   35  C29 MK1 B 902      14.853  19.721   2.684  1.00 27.70     0.010 A 
HETATM   36  C25 MK1 B 902      16.597  19.063   4.302  1.00 31.29    -0.047 A 
HETATM   37  C28 MK1 B 902      15.628  19.108   1.708  1.00 29.01     0.001 A 
HETATM   38  C27 MK1 B 902      16.856  18.499   2.003  1.00 28.00     0.001 A 
HETATM   39  C26 MK1 B 902      17.349  18.474   3.313  1.00 32.00     0.008 A 
HETATM   40  C24 MK1 B 902      16.717  19.313   5.785  1.00 32.05     0.073 C 
HETATM   41  C23 MK1 B 902      15.797  20.434   6.212  1.00 28.82     0.149 C 
BRANCH  41  42
HETATM   42  O4  MK1 B 902      16.391  21.722   6.150  1.00 28.32    -0.393 OA
HETATM   43  H4  MK1 B 902      15.857  22.353   6.619  1.00  0.00     0.210 HD
ENDBRANCH  41  42
ENDBRANCH  30  33
ENDBRANCH  28  29
BRANCH  28  44
HETATM   44  C14 MK1 B 902      11.110  23.557   6.572  1.00 28.67     0.052 C 
BRANCH  44  45
HETATM   45  C15 MK1 B 902      11.029  24.524   7.696  1.00 26.89    -0.057 A 
HETATM   46  C16 MK1 B 902      12.127  25.275   8.122  1.00 29.22     0.007 A 
HETATM   47  C17 MK1 B 902      12.015  26.140   9.201  1.00 29.22     0.001 A 
HETATM   48  C18 MK1 B 902      10.785  26.245   9.854  1.00 30.97     0.000 A 
HETATM   49  C19 MK1 B 902       9.680  25.500   9.424  1.00 29.25     0.001 A 
HETATM   50  C20 MK1 B 902       9.808  24.635   8.338  1.00 29.96     0.007 A 
ENDBRANCH  44  45
ENDBRANCH  28  44
ENDBRANCH  27  28
ENDBRANCH  24  27
ENDBRANCH  23  24
ENDBRANCH   4  23
TORSDOF 14
ENDMDL
MODEL 10
REMARK VINA RESULT:      -9.7      1.753      4.272
REMARK  14 active torsions:
REMARK  status: ('A' for Active; 'I' for Inactive)
REMARK    1  A    between atoms: N1_1  and  C31_43 
REMARK    2  A    between atoms: C2_3  and  C3_4 
REMARK       I    between atoms: C3_4  and  N2_6 
REMARK    3  A    between atoms: N2_6  and  C4_8 
REMARK    4  A    between atoms: N3_12  and  C10_15 
REMARK    5  A    between atoms: C10_15  and  C11_16 
REMARK    6  A    between atoms: C11_16  and  O2_17 
REMARK    7  A    between atoms: C11_16  and  C12_19 
REMARK    8  A    between atoms: C12_19  and  C13_20 
REMARK    9  A    between atoms: C13_20  and  C21_28 
REMARK   10  A    between atoms: C13_20  and  C14_21 
REMARK   11  A    between atoms: C14_21  and  C15_22 
REMARK       I    between atoms: C21_28  and  N4_30 
REMARK   12  A    between atoms: N4_30  and  C22_32 
REMARK   13  A    between atoms: C23_33  and  O4_34 
REMARK   14  A    between atoms: C31_43  and  C32_44 
ROOT
HETATM    1  N1  MK1 B 902       8.156  25.312   3.802  1.00 28.25     0.096 N 
HETATM    2  C1  MK1 B 902       9.054  25.630   4.944  1.00 30.30     0.307 C 
HETATM    3  C2  MK1 B 902      10.485  25.132   4.984  1.00 27.27     0.200 C 
HETATM    4  N3  MK1 B 902      10.292  23.642   4.892  1.00 28.91    -0.395 N 
HETATM    5  C8  MK1 B 902       9.266  23.107   3.963  1.00 26.24     0.148 C 
HETATM    6  C9  MK1 B 902       8.007  23.926   3.764  1.00 27.47     0.292 C 
ENDROOT
BRANCH   1   7
HETATM    7  C31 MK1 B 902       6.902  26.068   3.702  1.00 36.25     0.312 C 
BRANCH   7   8
HETATM    8  C32 MK1 B 902       6.108  26.466   4.952  1.00 42.75    -0.015 A 
HETATM    9  C36 MK1 B 902       6.524  27.583   5.645  1.00 44.71     0.011 A 
HETATM   10  C35 MK1 B 902       5.819  27.938   6.792  1.00 49.34     0.018 A 
HETATM   11  C34 MK1 B 902       4.729  27.167   7.207  1.00 50.60     0.087 A 
HETATM   12  N5  MK1 B 902       4.245  26.028   6.567  1.00 51.38    -0.375 N 
HETATM   13  C33 MK1 B 902       5.006  25.737   5.423  1.00 47.41     0.096 A 
HETATM   14  H5  MK1 B 902       3.446  25.479   6.886  1.00  0.00     0.164 HD
ENDBRANCH   7   8
ENDBRANCH   1   7
BRANCH   3  15
HETATM   15  C3  MK1 B 902      11.102  25.567   6.286  1.00 28.85     0.242 C 
HETATM   16  O1  MK1 B 902      12.302  25.800   6.354  1.00 29.59    -0.271 OA
HETATM   17  N2  MK1 B 902      10.297  25.667   7.325  1.00 22.29    -0.351 N 
HETATM   18  H2  MK1 B 902       9.334  25.379   7.151  1.00  0.00     0.163 HD
BRANCH  17  19
HETATM   19  C4  MK1 B 902      10.558  26.113   8.657  1.00 23.47     0.022 C 
HETATM   20  C7  MK1 B 902       9.659  25.527   9.657  1.00 22.75     0.037 C 
HETATM   21  C5  MK1 B 902      10.248  27.621   8.694  1.00 27.66     0.037 C 
HETATM   22  C6  MK1 B 902      11.859  25.877   9.070  1.00 21.71     0.037 C 
ENDBRANCH  17  19
ENDBRANCH   3  15
BRANCH   4  23
HETATM   23  C10 MK1 B 902      11.481  22.817   4.811  1.00 20.86     0.149 C 
BRANCH  23  24
HETATM   24  C11 MK1 B 902      12.382  23.132   3.616  1.00 21.68     0.136 C 
BRANCH  24  25
HETATM   25  O2  MK1 B 902      13.258  23.949   4.331  1.00 15.87    -0.394 OA
HETATM   26  H2  MK1 B 902      13.123  24.846   4.046  1.00  0.00     0.210 HD
ENDBRANCH  24  25
BRANCH  24  27
HETATM   27  C12 MK1 B 902      13.218  22.081   2.863  1.00 21.49     0.047 C 
BRANCH  27  28
HETATM   28  C13 MK1 B 902      14.011  21.015   3.634  1.00 26.89     0.084 C 
BRANCH  28  29
HETATM   29  C21 MK1 B 902      14.657  21.580   4.892  1.00 29.35     0.222 C 
HETATM   30  N4  MK1 B 902      14.012  21.327   6.028  1.00 31.19    -0.350 N 
HETATM   31  H4  MK1 B 902      13.045  21.003   5.989  1.00  0.00     0.163 HD
HETATM   32  O3  MK1 B 902      15.767  22.132   4.839  1.00 32.66    -0.273 OA
BRANCH  30  33
HETATM   33  C22 MK1 B 902      14.650  21.502   7.321  1.00 29.22     0.147 C 
HETATM   34  C30 MK1 B 902      16.148  21.127   7.461  1.00 31.86    -0.027 A 
HETATM   35  C29 MK1 B 902      16.913  20.132   6.941  1.00 27.70     0.010 A 
HETATM   36  C25 MK1 B 902      16.889  22.124   8.398  1.00 31.29    -0.047 A 
HETATM   37  C28 MK1 B 902      18.266  20.024   7.229  1.00 29.01     0.001 A 
HETATM   38  C27 MK1 B 902      18.927  20.938   8.065  1.00 28.00     0.001 A 
HETATM   39  C26 MK1 B 902      18.234  21.999   8.658  1.00 32.00     0.008 A 
HETATM   40  C24 MK1 B 902      15.774  23.075   8.756  1.00 32.05     0.073 C 
HETATM   41  C23 MK1 B 902      14.633  22.952   7.773  1.00 28.82     0.149 C 
BRANCH  41  42
HETATM   42  O4  MK1 B 902      14.742  23.818   6.653  1.00 28.32    -0.393 OA
HETATM   43  H4  MK1 B 902      15.087  24.662   6.921  1.00  0.00     0.210 HD
ENDBRANCH  41  42
ENDBRANCH  30  33
ENDBRANCH  28  29
BRANCH  28  44
HETATM   44  C14 MK1 B 902      15.099  20.358   2.767  1.00 28.67     0.052 C 
BRANCH  44  45
HETATM   45  C15 MK1 B 902      15.725  19.188   3.431  1.00 26.89    -0.057 A 
HETATM   46  C16 MK1 B 902      17.107  18.986   3.455  1.00 29.22     0.007 A 
HETATM   47  C17 MK1 B 902      17.646  17.858   4.056  1.00 29.22     0.001 A 
HETATM   48  C18 MK1 B 902      16.782  16.927   4.636  1.00 30.97     0.000 A 
HETATM   49  C19 MK1 B 902      15.396  17.129   4.621  1.00 29.25     0.001 A 
HETATM   50  C20 MK1 B 902      14.869  18.269   4.013  1.00 29.96     0.007 A 
ENDBRANCH  44  45
ENDBRANCH  28  44
ENDBRANCH  27  28
ENDBRANCH  24  27
ENDBRANCH  23  24
ENDBRANCH   4  23
TORSDOF 14
ENDMDL
MODEL 11
REMARK VINA RESULT:      -9.7      2.168     10.850
REMARK  14 active torsions:
REMARK  status: ('A' for Active; 'I' for Inactive)
REMARK    1  A    between atoms: N1_1  and  C31_43 
REMARK    2  A    between atoms: C2_3  and  C3_4 
REMARK       I    between atoms: C3_4  and  N2_6 
REMARK    3  A    between atoms: N2_6  and  C4_8 
REMARK    4  A    between atoms: N3_12  and  C10_15 
REMARK    5  A    between atoms: C10_15  and  C11_16 
REMARK    6  A    between atoms: C11_16  and  O2_17 
REMARK    7  A    between atoms: C11_16  and  C12_19 
REMARK    8  A    between atoms: C12_19  and  C13_20 
REMARK    9  A    between atoms: C13_20  and  C21_28 
REMARK   10  A    between atoms: C13_20  and  C14_21 
REMARK   11  A    between atoms: C14_21  and  C15_22 
REMARK       I    between atoms: C21_28  and  N4_30 
REMARK   12  A    between atoms: N4_30  and  C22_32 
REMARK   13  A    between atoms: C23_33  and  O4_34 
REMARK   14  A    between atoms: C31_43  and  C32_44 
ROOT
HETATM    1  N1  MK1 B 902      14.956  23.231   7.237  1.00 28.25     0.096 N 
HETATM    2  C1  MK1 B 902      15.150  22.221   6.161  1.00 30.30     0.307 C 
HETATM    3  C2  MK1 B 902      14.430  22.337   4.832  1.00 27.27     0.200 C 
HETATM    4  N3  MK1 B 902      12.989  22.345   5.265  1.00 28.91    -0.395 N 
HETATM    5  C8  MK1 B 902      12.607  23.119   6.473  1.00 26.24     0.148 C 
HETATM    6  C9  MK1 B 902      13.612  23.194   7.604  1.00 27.47     0.292 C 
ENDROOT
BRANCH   1   7
HETATM    7  C31 MK1 B 902      15.901  23.206   8.360  1.00 36.25     0.312 C 
BRANCH   7   8
HETATM    8  C32 MK1 B 902      16.629  21.918   8.763  1.00 42.75    -0.015 A 
HETATM    9  C36 MK1 B 902      17.991  21.861   8.557  1.00 44.71     0.011 A 
HETATM   10  C35 MK1 B 902      18.654  20.687   8.902  1.00 49.34     0.018 A 
HETATM   11  C34 MK1 B 902      17.937  19.612   9.437  1.00 50.60     0.087 A 
HETATM   12  N5  MK1 B 902      16.564  19.587   9.676  1.00 51.38    -0.375 N 
HETATM   13  C33 MK1 B 902      15.970  20.804   9.303  1.00 47.41     0.096 A 
HETATM   14  H5  MK1 B 902      16.059  18.792  10.068  1.00  0.00     0.164 HD
ENDBRANCH   7   8
ENDBRANCH   1   7
BRANCH   3  15
HETATM   15  C3  MK1 B 902      14.788  21.140   3.994  1.00 28.85     0.242 C 
HETATM   16  O1  MK1 B 902      14.537  21.128   2.795  1.00 29.59    -0.271 OA
HETATM   17  N2  MK1 B 902      15.359  20.126   4.612  1.00 22.29    -0.351 N 
HETATM   18  H2  MK1 B 902      15.450  20.236   5.622  1.00  0.00     0.163 HD
BRANCH  17  19
HETATM   19  C4  MK1 B 902      15.871  18.897   4.095  1.00 23.47     0.022 C 
HETATM   20  C7  MK1 B 902      15.053  17.730   4.440  1.00 22.75     0.037 C 
HETATM   21  C5  MK1 B 902      17.220  18.643   4.792  1.00 27.66     0.037 C 
HETATM   22  C6  MK1 B 902      16.033  18.906   2.719  1.00 21.71     0.037 C 
ENDBRANCH  17  19
ENDBRANCH   3  15
BRANCH   4  23
HETATM   23  C10 MK1 B 902      11.983  22.538   4.241  1.00 20.86     0.149 C 
BRANCH  23  24
HETATM   24  C11 MK1 B 902      11.625  24.002   3.983  1.00 21.68     0.136 C 
BRANCH  24  25
HETATM   25  O2  MK1 B 902      12.253  24.069   2.739  1.00 15.87    -0.394 OA
HETATM   26  H2  MK1 B 902      13.187  23.957   2.875  1.00  0.00     0.210 HD
ENDBRANCH  24  25
BRANCH  24  27
HETATM   27  C12 MK1 B 902      10.185  24.524   3.818  1.00 21.49     0.047 C 
BRANCH  27  28
HETATM   28  C13 MK1 B 902       9.475  25.238   4.977  1.00 26.89     0.084 C 
BRANCH  28  29
HETATM   29  C21 MK1 B 902       8.284  26.060   4.500  1.00 29.35     0.222 C 
HETATM   30  N4  MK1 B 902       7.113  25.736   5.043  1.00 31.19    -0.350 N 
HETATM   31  H4  MK1 B 902       7.022  24.848   5.536  1.00  0.00     0.163 HD
HETATM   32  O3  MK1 B 902       8.448  27.030   3.745  1.00 32.66    -0.273 OA
BRANCH  30  33
HETATM   33  C22 MK1 B 902       5.962  26.618   4.951  1.00 29.22     0.147 C 
HETATM   34  C30 MK1 B 902       4.598  26.009   4.530  1.00 31.86    -0.027 A 
HETATM   35  C29 MK1 B 902       4.243  25.044   3.642  1.00 27.70     0.010 A 
HETATM   36  C25 MK1 B 902       3.426  26.668   5.312  1.00 31.29    -0.047 A 
HETATM   37  C28 MK1 B 902       2.918  24.675   3.457  1.00 29.01     0.001 A 
HETATM   38  C27 MK1 B 902       1.870  25.267   4.178  1.00 28.00     0.001 A 
HETATM   39  C26 MK1 B 902       2.123  26.275   5.115  1.00 32.00     0.008 A 
HETATM   40  C24 MK1 B 902       4.170  27.639   6.194  1.00 32.05     0.073 C 
HETATM   41  C23 MK1 B 902       5.632  27.265   6.286  1.00 28.82     0.149 C 
BRANCH  41  42
HETATM   42  O4  MK1 B 902       5.933  26.375   7.351  1.00 28.32    -0.393 OA
HETATM   43  H4  MK1 B 902       5.135  25.984   7.688  1.00  0.00     0.210 HD
ENDBRANCH  41  42
ENDBRANCH  30  33
ENDBRANCH  28  29
BRANCH  28  44
HETATM   44  C14 MK1 B 902      10.425  26.153   5.769  1.00 28.67     0.052 C 
BRANCH  44  45
HETATM   45  C15 MK1 B 902      10.360  25.910   7.232  1.00 26.89    -0.057 A 
HETATM   46  C16 MK1 B 902       9.224  25.392   7.858  1.00 29.22     0.007 A 
HETATM   47  C17 MK1 B 902       9.194  25.216   9.233  1.00 29.22     0.001 A 
HETATM   48  C18 MK1 B 902      10.320  25.568   9.981  1.00 30.97     0.000 A 
HETATM   49  C19 MK1 B 902      11.463  26.081   9.357  1.00 29.25     0.001 A 
HETATM   50  C20 MK1 B 902      11.478  26.252   7.972  1.00 29.96     0.007 A 
ENDBRANCH  44  45
ENDBRANCH  28  44
ENDBRANCH  27  28
ENDBRANCH  24  27
ENDBRANCH  23  24
ENDBRANCH   4  23
TORSDOF 14
ENDMDL
MODEL 12
REMARK VINA RESULT:      -9.5      2.008     10.391
REMARK  14 active torsions:
REMARK  status: ('A' for Active; 'I' for Inactive)
REMARK    1  A    between atoms: N1_1  and  C31_43 
REMARK    2  A    between atoms: C2_3  and  C3_4 
REMARK       I    between atoms: C3_4  and  N2_6 
REMARK    3  A    between atoms: N2_6  and  C4_8 
REMARK    4  A    between atoms: N3_12  and  C10_15 
REMARK    5  A    between atoms: C10_15  and  C11_16 
REMARK    6  A    between atoms: C11_16  and  O2_17 
REMARK    7  A    between atoms: C11_16  and  C12_19 
REMARK    8  A    between atoms: C12_19  and  C13_20 
REMARK    9  A    between atoms: C13_20  and  C21_28 
REMARK   10  A    between atoms: C13_20  and  C14_21 
REMARK   11  A    between atoms: C14_21  and  C15_22 
REMARK       I    between atoms: C21_28  and  N4_30 
REMARK   12  A    between atoms: N4_30  and  C22_32 
REMARK   13  A    between atoms: C23_33  and  O4_34 
REMARK   14  A    between atoms: C31_43  and  C32_44 
ROOT
HETATM    1  N1  MK1 B 902      15.450  19.454   3.611  1.00 28.25     0.096 N 
HETATM    2  C1  MK1 B 902      15.349  20.136   4.929  1.00 30.30     0.307 C 
HETATM    3  C2  MK1 B 902      14.075  20.835   5.360  1.00 27.27     0.200 C 
HETATM    4  N3  MK1 B 902      13.889  21.840   4.255  1.00 28.91    -0.395 N 
HETATM    5  C8  MK1 B 902      14.163  21.427   2.855  1.00 26.24     0.148 C 
HETATM    6  C9  MK1 B 902      15.277  20.426   2.626  1.00 27.47     0.292 C 
ENDROOT
BRANCH   1   7
HETATM    7  C31 MK1 B 902      16.598  18.564   3.401  1.00 36.25     0.312 C 
BRANCH   7   8
HETATM    8  C32 MK1 B 902      17.476  18.104   4.570  1.00 42.75    -0.015 A 
HETATM    9  C36 MK1 B 902      17.537  16.752   4.832  1.00 44.71     0.011 A 
HETATM   10  C35 MK1 B 902      18.317  16.330   5.905  1.00 49.34     0.018 A 
HETATM   11  C34 MK1 B 902      19.005  17.270   6.679  1.00 50.60     0.087 A 
HETATM   12  N5  MK1 B 902      18.997  18.650   6.483  1.00 51.38    -0.375 N 
HETATM   13  C33 MK1 B 902      18.191  18.993   5.386  1.00 47.41     0.096 A 
HETATM   14  H5  MK1 B 902      19.507  19.320   7.060  1.00  0.00     0.164 HD
ENDBRANCH   7   8
ENDBRANCH   1   7
BRANCH   3  15
HETATM   15  C3  MK1 B 902      14.313  21.472   6.702  1.00 28.85     0.242 C 
HETATM   16  O1  MK1 B 902      13.373  21.896   7.361  1.00 29.59    -0.271 OA
HETATM   17  N2  MK1 B 902      15.565  21.556   7.110  1.00 22.29    -0.351 N 
HETATM   18  H2  MK1 B 902      16.258  21.227   6.437  1.00  0.00     0.163 HD
BRANCH  17  19
HETATM   19  C4  MK1 B 902      16.105  22.035   8.342  1.00 23.47     0.022 C 
HETATM   20  C7  MK1 B 902      16.243  23.494   8.394  1.00 22.75     0.037 C 
HETATM   21  C5  MK1 B 902      17.548  21.506   8.435  1.00 27.66     0.037 C 
HETATM   22  C6  MK1 B 902      15.375  21.641   9.451  1.00 21.71     0.037 C 
ENDBRANCH  17  19
ENDBRANCH   3  15
BRANCH   4  23
HETATM   23  C10 MK1 B 902      12.690  22.653   4.283  1.00 20.86     0.149 C 
BRANCH  23  24
HETATM   24  C11 MK1 B 902      11.442  21.945   3.752  1.00 21.68     0.136 C 
BRANCH  24  25
HETATM   25  O2  MK1 B 902      10.723  22.046   4.945  1.00 15.87    -0.394 OA
HETATM   26  H2  MK1 B 902      11.328  21.904   5.665  1.00  0.00     0.210 HD
ENDBRANCH  24  25
BRANCH  24  27
HETATM   27  C12 MK1 B 902      10.556  22.490   2.617  1.00 21.49     0.047 C 
BRANCH  27  28
HETATM   28  C13 MK1 B 902       9.562  23.630   2.879  1.00 26.89     0.084 C 
BRANCH  28  29
HETATM   29  C21 MK1 B 902      10.211  24.799   3.610  1.00 29.35     0.222 C 
HETATM   30  N4  MK1 B 902       9.790  24.995   4.857  1.00 31.19    -0.350 N 
HETATM   31  H4  MK1 B 902       8.931  24.545   5.169  1.00  0.00     0.163 HD
HETATM   32  O3  MK1 B 902      11.143  25.430   3.090  1.00 32.66    -0.273 OA
BRANCH  30  33
HETATM   33  C22 MK1 B 902      10.527  25.837   5.784  1.00 29.22     0.147 C 
HETATM   34  C30 MK1 B 902       9.724  26.741   6.757  1.00 31.86    -0.027 A 
HETATM   35  C29 MK1 B 902       8.576  27.456   6.631  1.00 27.70     0.010 A 
HETATM   36  C25 MK1 B 902      10.412  26.812   8.150  1.00 31.29    -0.047 A 
HETATM   37  C28 MK1 B 902       8.057  28.195   7.686  1.00 29.01     0.001 A 
HETATM   38  C27 MK1 B 902       8.679  28.241   8.942  1.00 28.00     0.001 A 
HETATM   39  C26 MK1 B 902       9.869  27.544   9.180  1.00 32.00     0.008 A 
HETATM   40  C24 MK1 B 902      11.601  25.908   7.939  1.00 32.05     0.073 C 
HETATM   41  C23 MK1 B 902      11.388  25.021   6.734  1.00 28.82     0.149 C 
BRANCH  41  42
HETATM   42  O4  MK1 B 902      10.754  23.786   7.033  1.00 28.32    -0.393 OA
HETATM   43  H4  MK1 B 902      11.398  23.087   7.074  1.00  0.00     0.210 HD
ENDBRANCH  41  42
ENDBRANCH  30  33
ENDBRANCH  28  29
BRANCH  28  44
HETATM   44  C14 MK1 B 902       8.335  23.160   3.680  1.00 28.67     0.052 C 
BRANCH  44  45
HETATM   45  C15 MK1 B 902       7.055  23.540   3.033  1.00 26.89    -0.057 A 
HETATM   46  C16 MK1 B 902       7.000  24.242   1.827  1.00 29.22     0.007 A 
HETATM   47  C17 MK1 B 902       5.781  24.608   1.277  1.00 29.22     0.001 A 
HETATM   48  C18 MK1 B 902       4.608  24.264   1.953  1.00 30.97     0.000 A 
HETATM   49  C19 MK1 B 902       4.658  23.554   3.158  1.00 29.25     0.001 A 
HETATM   50  C20 MK1 B 902       5.891  23.192   3.698  1.00 29.96     0.007 A 
ENDBRANCH  44  45
ENDBRANCH  28  44
ENDBRANCH  27  28
ENDBRANCH  24  27
ENDBRANCH  23  24
ENDBRANCH   4  23
TORSDOF 14
ENDMDL
MODEL 13
REMARK VINA RESULT:      -9.2      2.416      5.887
REMARK  14 active torsions:
REMARK  status: ('A' for Active; 'I' for Inactive)
REMARK    1  A    between atoms: N1_1  and  C31_43 
REMARK    2  A    between atoms: C2_3  and  C3_4 
REMARK       I    between atoms: C3_4  and  N2_6 
REMARK    3  A    between atoms: N2_6  and  C4_8 
REMARK    4  A    between atoms: N3_12  and  C10_15 
REMARK    5  A    between atoms: C10_15  and  C11_16 
REMARK    6  A    between atoms: C11_16  and  O2_17 
REMARK    7  A    between atoms: C11_16  and  C12_19 
REMARK    8  A    between atoms: C12_19  and  C13_20 
REMARK    9  A    between atoms: C13_20  and  C21_28 
REMARK   10  A    between atoms: C13_20  and  C14_21 
REMARK   11  A    between atoms: C14_21  and  C15_22 
REMARK       I    between atoms: C21_28  and  N4_30 
REMARK   12  A    between atoms: N4_30  and  C22_32 
REMARK   13  A    between atoms: C23_33  and  O4_34 
REMARK   14  A    between atoms: C31_43  and  C32_44 
ROOT
HETATM    1  N1  MK1 B 902      11.782  25.308   8.483  1.00 28.25     0.096 N 
HETATM    2  C1  MK1 B 902      11.626  25.298   7.004  1.00 30.30     0.307 C 
HETATM    3  C2  MK1 B 902      12.051  24.102   6.175  1.00 27.27     0.200 C 
HETATM    4  N3  MK1 B 902      13.508  23.985   6.531  1.00 28.91    -0.395 N 
HETATM    5  C8  MK1 B 902      13.921  24.190   7.943  1.00 26.24     0.148 C 
HETATM    6  C9  MK1 B 902      13.145  25.204   8.759  1.00 27.47     0.292 C 
ENDROOT
BRANCH   1   7
HETATM    7  C31 MK1 B 902      11.085  26.366   9.225  1.00 36.25     0.312 C 
BRANCH   7   8
HETATM    8  C32 MK1 B 902       9.758  26.950   8.725  1.00 42.75    -0.015 A 
HETATM    9  C36 MK1 B 902       8.650  26.129   8.744  1.00 44.71     0.011 A 
HETATM   10  C35 MK1 B 902       7.447  26.647   8.272  1.00 49.34     0.018 A 
HETATM   11  C34 MK1 B 902       7.392  27.961   7.798  1.00 50.60     0.087 A 
HETATM   12  N5  MK1 B 902       8.461  28.855   7.744  1.00 51.38    -0.375 N 
HETATM   13  C33 MK1 B 902       9.634  28.258   8.236  1.00 47.41     0.096 A 
HETATM   14  H5  MK1 B 902       8.400  29.811   7.395  1.00  0.00     0.164 HD
ENDBRANCH   7   8
ENDBRANCH   1   7
BRANCH   3  15
HETATM   15  C3  MK1 B 902      11.822  24.426   4.724  1.00 28.85     0.242 C 
HETATM   16  O1  MK1 B 902      12.628  25.114   4.110  1.00 29.59    -0.271 OA
HETATM   17  N2  MK1 B 902      10.725  23.949   4.170  1.00 22.29    -0.351 N 
HETATM   18  H2  MK1 B 902      10.105  23.449   4.808  1.00  0.00     0.163 HD
BRANCH  17  19
HETATM   19  C4  MK1 B 902      10.264  24.020   2.820  1.00 23.47     0.022 C 
HETATM   20  C7  MK1 B 902       9.625  25.297   2.486  1.00 22.75     0.037 C 
HETATM   21  C5  MK1 B 902       9.143  22.975   2.672  1.00 27.66     0.037 C 
HETATM   22  C6  MK1 B 902      11.263  23.792   1.886  1.00 21.71     0.037 C 
ENDBRANCH  17  19
ENDBRANCH   3  15
BRANCH   4  23
HETATM   23  C10 MK1 B 902      14.245  22.865   5.981  1.00 20.86     0.149 C 
BRANCH  23  24
HETATM   24  C11 MK1 B 902      14.616  21.794   7.008  1.00 21.68     0.136 C 
BRANCH  24  25
HETATM   25  O2  MK1 B 902      13.828  20.793   6.437  1.00 15.87    -0.394 OA
HETATM   26  H2  MK1 B 902      13.747  20.087   7.067  1.00  0.00     0.210 HD
ENDBRANCH  24  25
BRANCH  24  27
HETATM   27  C12 MK1 B 902      16.037  21.232   7.195  1.00 21.49     0.047 C 
BRANCH  27  28
HETATM   28  C13 MK1 B 902      16.547  20.086   6.310  1.00 26.89     0.084 C 
BRANCH  28  29
HETATM   29  C21 MK1 B 902      17.856  19.501   6.828  1.00 29.35     0.222 C 
HETATM   30  N4  MK1 B 902      17.779  18.258   7.296  1.00 31.19    -0.350 N 
HETATM   31  H4  MK1 B 902      16.864  17.862   7.509  1.00  0.00     0.163 HD
HETATM   32  O3  MK1 B 902      18.921  20.124   6.699  1.00 32.66    -0.273 OA
BRANCH  30  33
HETATM   33  C22 MK1 B 902      18.968  17.452   7.513  1.00 29.22     0.147 C 
HETATM   34  C30 MK1 B 902      19.038  16.569   8.786  1.00 31.86    -0.027 A 
HETATM   35  C29 MK1 B 902      18.621  16.746  10.068  1.00 27.70     0.010 A 
HETATM   36  C25 MK1 B 902      19.735  15.211   8.488  1.00 31.29    -0.047 A 
HETATM   37  C28 MK1 B 902      18.807  15.769  11.037  1.00 29.01     0.001 A 
HETATM   38  C27 MK1 B 902      19.425  14.542  10.752  1.00 28.00     0.001 A 
HETATM   39  C26 MK1 B 902      19.895  14.257   9.465  1.00 32.00     0.008 A 
HETATM   40  C24 MK1 B 902      20.029  15.349   7.014  1.00 32.05     0.073 C 
HETATM   41  C23 MK1 B 902      19.180  16.438   6.401  1.00 28.82     0.149 C 
BRANCH  41  42
HETATM   42  O4  MK1 B 902      17.929  15.984   5.906  1.00 28.32    -0.393 OA
HETATM   43  H4  MK1 B 902      17.238  16.587   6.155  1.00  0.00     0.210 HD
ENDBRANCH  41  42
ENDBRANCH  30  33
ENDBRANCH  28  29
BRANCH  28  44
HETATM   44  C14 MK1 B 902      16.741  20.521   4.847  1.00 28.67     0.052 C 
BRANCH  44  45
HETATM   45  C15 MK1 B 902      16.638  19.384   3.898  1.00 26.89    -0.057 A 
HETATM   46  C16 MK1 B 902      17.755  18.677   3.448  1.00 29.22     0.007 A 
HETATM   47  C17 MK1 B 902      17.616  17.644   2.533  1.00 29.22     0.001 A 
HETATM   48  C18 MK1 B 902      16.338  17.327   2.067  1.00 30.97     0.000 A 
HETATM   49  C19 MK1 B 902      15.215  18.028   2.521  1.00 29.25     0.001 A 
HETATM   50  C20 MK1 B 902      15.371  19.063   3.442  1.00 29.96     0.007 A 
ENDBRANCH  44  45
ENDBRANCH  28  44
ENDBRANCH  27  28
ENDBRANCH  24  27
ENDBRANCH  23  24
ENDBRANCH   4  23
TORSDOF 14
ENDMDL
MODEL 14
REMARK VINA RESULT:      -9.1      4.325      8.236
REMARK  14 active torsions:
REMARK  status: ('A' for Active; 'I' for Inactive)
REMARK    1  A    between atoms: N1_1  and  C31_43 
REMARK    2  A    between atoms: C2_3  and  C3_4 
REMARK       I    between atoms: C3_4  and  N2_6 
REMARK    3  A    between atoms: N2_6  and  C4_8 
REMARK    4  A    between atoms: N3_12  and  C10_15 
REMARK    5  A    between atoms: C10_15  and  C11_16 
REMARK    6  A    between atoms: C11_16  and  O2_17 
REMARK    7  A    between atoms: C11_16  and  C12_19 
REMARK    8  A    between atoms: C12_19  and  C13_20 
REMARK    9  A    between atoms: C13_20  and  C21_28 
REMARK   10  A    between atoms: C13_20  and  C14_21 
REMARK   11  A    between atoms: C14_21  and  C15_22 
REMARK       I    between atoms: C21_28  and  N4_30 
REMARK   12  A    between atoms: N4_30  and  C22_32 
REMARK   13  A    between atoms: C23_33  and  O4_34 
REMARK   14  A    between atoms: C31_43  and  C32_44 
ROOT
HETATM    1  N1  MK1 B 902      15.130  22.686   7.954  1.00 28.25     0.096 N 
HETATM    2  C1  MK1 B 902      15.603  21.727   6.921  1.00 30.30     0.307 C 
HETATM    3  C2  MK1 B 902      16.452  20.526   7.290  1.00 27.27     0.200 C 
HETATM    4  N3  MK1 B 902      17.634  21.179   7.953  1.00 28.91    -0.395 N 
HETATM    5  C8  MK1 B 902      17.401  22.328   8.864  1.00 26.24     0.148 C 
HETATM    6  C9  MK1 B 902      16.259  23.266   8.532  1.00 27.47     0.292 C 
ENDROOT
BRANCH   1   7
HETATM    7  C31 MK1 B 902      14.085  23.638   7.558  1.00 36.25     0.312 C 
BRANCH   7   8
HETATM    8  C32 MK1 B 902      13.272  23.444   6.273  1.00 42.75    -0.015 A 
HETATM    9  C36 MK1 B 902      12.232  22.539   6.304  1.00 44.71     0.011 A 
HETATM   10  C35 MK1 B 902      11.503  22.343   5.134  1.00 49.34     0.018 A 
HETATM   11  C34 MK1 B 902      11.839  23.052   3.977  1.00 50.60     0.087 A 
HETATM   12  N5  MK1 B 902      12.872  23.981   3.860  1.00 51.38    -0.375 N 
HETATM   13  C33 MK1 B 902      13.556  24.122   5.079  1.00 47.41     0.096 A 
HETATM   14  H5  MK1 B 902      13.100  24.490   3.005  1.00  0.00     0.164 HD
ENDBRANCH   7   8
ENDBRANCH   1   7
BRANCH   3  15
HETATM   15  C3  MK1 B 902      16.814  19.795   6.025  1.00 28.85     0.242 C 
HETATM   16  O1  MK1 B 902      17.866  20.042   5.448  1.00 29.59    -0.271 OA
HETATM   17  N2  MK1 B 902      15.949  18.906   5.579  1.00 22.29    -0.351 N 
HETATM   18  H2  MK1 B 902      15.082  18.845   6.115  1.00  0.00     0.163 HD
BRANCH  17  19
HETATM   19  C4  MK1 B 902      16.029  18.015   4.466  1.00 23.47     0.022 C 
HETATM   20  C7  MK1 B 902      15.977  18.694   3.167  1.00 22.75     0.037 C 
HETATM   21  C5  MK1 B 902      14.761  17.142   4.497  1.00 27.66     0.037 C 
HETATM   22  C6  MK1 B 902      17.163  17.219   4.481  1.00 21.71     0.037 C 
ENDBRANCH  17  19
ENDBRANCH   3  15
BRANCH   4  23
HETATM   23  C10 MK1 B 902      18.642  20.313   8.530  1.00 20.86     0.149 C 
BRANCH  23  24
HETATM   24  C11 MK1 B 902      18.074  19.139   9.330  1.00 21.68     0.136 C 
BRANCH  24  25
HETATM   25  O2  MK1 B 902      18.675  18.151   8.548  1.00 15.87    -0.394 OA
HETATM   26  H2  MK1 B 902      18.369  17.306   8.855  1.00  0.00     0.210 HD
ENDBRANCH  24  25
BRANCH  24  27
HETATM   27  C12 MK1 B 902      18.415  18.852  10.804  1.00 21.49     0.047 C 
BRANCH  27  28
HETATM   28  C13 MK1 B 902      18.348  17.421  11.357  1.00 26.89     0.084 C 
BRANCH  28  29
HETATM   29  C21 MK1 B 902      19.431  16.527  10.766  1.00 29.35     0.222 C 
HETATM   30  N4  MK1 B 902      19.006  15.367  10.273  1.00 31.19    -0.350 N 
HETATM   31  H4  MK1 B 902      18.073  15.034  10.517  1.00  0.00     0.163 HD
HETATM   32  O3  MK1 B 902      20.599  16.933  10.664  1.00 32.66    -0.273 OA
BRANCH  30  33
HETATM   33  C22 MK1 B 902      19.838  14.563   9.394  1.00 29.22     0.147 C 
HETATM   34  C30 MK1 B 902      19.668  13.021   9.424  1.00 31.86    -0.027 A 
HETATM   35  C29 MK1 B 902      19.425  12.130  10.420  1.00 27.70     0.010 A 
HETATM   36  C25 MK1 B 902      19.811  12.415   7.999  1.00 31.29    -0.047 A 
HETATM   37  C28 MK1 B 902      19.310  10.769  10.170  1.00 29.01     0.001 A 
HETATM   38  C27 MK1 B 902      19.427  10.235   8.878  1.00 28.00     0.001 A 
HETATM   39  C26 MK1 B 902      19.681  11.064   7.779  1.00 32.00     0.008 A 
HETATM   40  C24 MK1 B 902      20.040  13.656   7.173  1.00 32.05     0.073 C 
HETATM   41  C23 MK1 B 902      19.601  14.888   7.929  1.00 28.82     0.149 C 
BRANCH  41  42
HETATM   42  O4  MK1 B 902      18.241  15.240   7.718  1.00 28.32    -0.393 OA
HETATM   43  H4  MK1 B 902      17.876  15.630   8.504  1.00  0.00     0.210 HD
ENDBRANCH  41  42
ENDBRANCH  30  33
ENDBRANCH  28  29
BRANCH  28  44
HETATM   44  C14 MK1 B 902      16.976  16.767  11.117  1.00 28.67     0.052 C 
BRANCH  44  45
HETATM   45  C15 MK1 B 902      16.413  16.160  12.348  1.00 26.89    -0.057 A 
HETATM   46  C16 MK1 B 902      17.213  15.734  13.411  1.00 29.22     0.007 A 
HETATM   47  C17 MK1 B 902      16.646  15.138  14.528  1.00 29.22     0.001 A 
HETATM   48  C18 MK1 B 902      15.261  14.969  14.569  1.00 30.97     0.000 A 
HETATM   49  C19 MK1 B 902      14.454  15.401  13.509  1.00 29.25     0.001 A 
HETATM   50  C20 MK1 B 902      15.039  15.999  12.393  1.00 29.96     0.007 A 
ENDBRANCH  44  45
ENDBRANCH  28  44
ENDBRANCH  27  28
ENDBRANCH  24  27
ENDBRANCH  23  24
ENDBRANCH   4  23
TORSDOF 14
ENDMDL
MODEL 15
REMARK VINA RESULT:      -9.1      2.108     10.654
REMARK  14 active torsions:
REMARK  status: ('A' for Active; 'I' for Inactive)
REMARK    1  A    between atoms: N1_1  and  C31_43 
REMARK    2  A    between atoms: C2_3  and  C3_4 
REMARK       I    between atoms: C3_4  and  N2_6 
REMARK    3  A    between atoms: N2_6  and  C4_8 
REMARK    4  A    between atoms: N3_12  and  C10_15 
REMARK    5  A    between atoms: C10_15  and  C11_16 
REMARK    6  A    between atoms: C11_16  and  O2_17 
REMARK    7  A    between atoms: C11_16  and  C12_19 
REMARK    8  A    between atoms: C12_19  and  C13_20 
REMARK    9  A    between atoms: C13_20  and  C21_28 
REMARK   10  A    between atoms: C13_20  and  C14_21 
REMARK   11  A    between atoms: C14_21  and  C15_22 
REMARK       I    between atoms: C21_28  and  N4_30 
REMARK   12  A    between atoms: N4_30  and  C22_32 
REMARK   13  A    between atoms: C23_33  and  O4_34 
REMARK   14  A    between atoms: C31_43  and  C32_44 
ROOT
HETATM    1  N1  MK1 B 902      14.780  22.967   7.772  1.00 28.25     0.096 N 
HETATM    2  C1  MK1 B 902      14.812  22.074   6.582  1.00 30.30     0.307 C 
HETATM    3  C2  MK1 B 902      14.793  22.637   5.175  1.00 27.27     0.200 C 
HETATM    4  N3  MK1 B 902      13.513  23.428   5.180  1.00 28.91    -0.395 N 
HETATM    5  C8  MK1 B 902      13.166  24.224   6.383  1.00 26.24     0.148 C 
HETATM    6  C9  MK1 B 902      13.577  23.670   7.732  1.00 27.47     0.292 C 
ENDROOT
BRANCH   1   7
HETATM    7  C31 MK1 B 902      15.097  22.364   9.073  1.00 36.25     0.312 C 
BRANCH   7   8
HETATM    8  C32 MK1 B 902      16.352  21.506   9.271  1.00 42.75    -0.015 A 
HETATM    9  C36 MK1 B 902      16.231  20.360  10.027  1.00 44.71     0.011 A 
HETATM   10  C35 MK1 B 902      17.372  19.587  10.228  1.00 49.34     0.018 A 
HETATM   11  C34 MK1 B 902      18.591  19.986   9.670  1.00 50.60     0.087 A 
HETATM   12  N5  MK1 B 902      18.799  21.126   8.896  1.00 51.38    -0.375 N 
HETATM   13  C33 MK1 B 902      17.604  21.848   8.740  1.00 47.41     0.096 A 
HETATM   14  H5  MK1 B 902      19.697  21.400   8.497  1.00  0.00     0.164 HD
ENDBRANCH   7   8
ENDBRANCH   1   7
BRANCH   3  15
HETATM   15  C3  MK1 B 902      14.771  21.486   4.205  1.00 28.85     0.242 C 
HETATM   16  O1  MK1 B 902      14.090  21.546   3.189  1.00 29.59    -0.271 OA
HETATM   17  N2  MK1 B 902      15.500  20.431   4.513  1.00 22.29    -0.351 N 
HETATM   18  H2  MK1 B 902      15.966  20.482   5.419  1.00  0.00     0.163 HD
BRANCH  17  19
HETATM   19  C4  MK1 B 902      15.741  19.229   3.781  1.00 23.47     0.022 C 
HETATM   20  C7  MK1 B 902      15.161  19.237   2.434  1.00 22.75     0.037 C 
HETATM   21  C5  MK1 B 902      14.998  18.099   4.515  1.00 27.66     0.037 C 
HETATM   22  C6  MK1 B 902      17.087  18.922   3.658  1.00 21.71     0.037 C 
ENDBRANCH  17  19
ENDBRANCH   3  15
BRANCH   4  23
HETATM   23  C10 MK1 B 902      13.197  24.199   3.994  1.00 20.86     0.149 C 
BRANCH  23  24
HETATM   24  C11 MK1 B 902      11.816  23.906   3.405  1.00 21.68     0.136 C 
BRANCH  24  25
HETATM   25  O2  MK1 B 902      11.587  22.769   4.182  1.00 15.87    -0.394 OA
HETATM   26  H2  MK1 B 902      11.659  23.018   5.096  1.00  0.00     0.210 HD
ENDBRANCH  24  25
BRANCH  24  27
HETATM   27  C12 MK1 B 902      10.598  24.836   3.553  1.00 21.49     0.047 C 
BRANCH  27  28
HETATM   28  C13 MK1 B 902       9.516  24.547   4.603  1.00 26.89     0.084 C 
BRANCH  28  29
HETATM   29  C21 MK1 B 902       8.353  23.750   4.023  1.00 29.35     0.222 C 
HETATM   30  N4  MK1 B 902       7.207  24.416   3.909  1.00 31.19    -0.350 N 
HETATM   31  H4  MK1 B 902       7.091  25.297   4.411  1.00  0.00     0.163 HD
HETATM   32  O3  MK1 B 902       8.529  22.601   3.591  1.00 32.66    -0.273 OA
BRANCH  30  33
HETATM   33  C22 MK1 B 902       6.117  23.920   3.087  1.00 29.22     0.147 C 
HETATM   34  C30 MK1 B 902       4.666  24.309   3.472  1.00 31.86    -0.027 A 
HETATM   35  C29 MK1 B 902       4.028  24.465   4.662  1.00 27.70     0.010 A 
HETATM   36  C25 MK1 B 902       3.800  24.564   2.206  1.00 31.29    -0.047 A 
HETATM   37  C28 MK1 B 902       2.691  24.834   4.730  1.00 29.01     0.001 A 
HETATM   38  C27 MK1 B 902       1.924  25.075   3.581  1.00 28.00     0.001 A 
HETATM   39  C26 MK1 B 902       2.480  24.938   2.304  1.00 32.00     0.008 A 
HETATM   40  C24 MK1 B 902       4.808  24.332   1.108  1.00 32.05     0.073 C 
HETATM   41  C23 MK1 B 902       6.216  24.411   1.652  1.00 28.82     0.149 C 
BRANCH  41  42
HETATM   42  O4  MK1 B 902       6.775  25.716   1.617  1.00 28.32    -0.393 OA
HETATM   43  H4  MK1 B 902       6.944  25.977   0.719  1.00  0.00     0.210 HD
ENDBRANCH  41  42
ENDBRANCH  30  33
ENDBRANCH  28  29
BRANCH  28  44
HETATM   44  C14 MK1 B 902       8.968  25.833   5.244  1.00 28.67     0.052 C 
BRANCH  44  45
HETATM   45  C15 MK1 B 902       9.433  26.014   6.642  1.00 26.89    -0.057 A 
HETATM   46  C16 MK1 B 902       9.734  24.938   7.480  1.00 29.22     0.007 A 
HETATM   47  C17 MK1 B 902      10.131  25.153   8.792  1.00 29.22     0.001 A 
HETATM   48  C18 MK1 B 902      10.222  26.465   9.260  1.00 30.97     0.000 A 
HETATM   49  C19 MK1 B 902       9.929  27.547   8.421  1.00 29.25     0.001 A 
HETATM   50  C20 MK1 B 902       9.532  27.315   7.104  1.00 29.96     0.007 A 
ENDBRANCH  44  45
ENDBRANCH  28  44
ENDBRANCH  27  28
ENDBRANCH  24  27
ENDBRANCH  23  24
ENDBRANCH   4  23
TORSDOF 14
ENDMDL
MODEL 16
REMARK VINA RESULT:      -9.0      2.900     11.002
REMARK  14 active torsions:
REMARK  status: ('A' for Active; 'I' for Inactive)
REMARK    1  A    between atoms: N1_1  and  C31_43 
REMARK    2  A    between atoms: C2_3  and  C3_4 
REMARK       I    between atoms: C3_4  and  N2_6 
REMARK    3  A    between atoms: N2_6  and  C4_8 
REMARK    4  A    between atoms: N3_12  and  C10_15 
REMARK    5  A    between atoms: C10_15  and  C11_16 
REMARK    6  A    between atoms: C11_16  and  O2_17 
REMARK    7  A    between atoms: C11_16  and  C12_19 
REMARK    8  A    between atoms: C12_19  and  C13_20 
REMARK    9  A    between atoms: C13_20  and  C21_28 
REMARK   10  A    between atoms: C13_20  and  C14_21 
REMARK   11  A    between atoms: C14_21  and  C15_22 
REMARK       I    between atoms: C21_28  and  N4_30 
REMARK   12  A    between atoms: N4_30  and  C22_32 
REMARK   13  A    between atoms: C23_33  and  O4_34 
REMARK   14  A    between atoms: C31_43  and  C32_44 
ROOT
HETATM    1  N1  MK1 B 902      18.258  17.695   5.599  1.00 28.25     0.096 N 
HETATM    2  C1  MK1 B 902      18.644  17.688   7.036  1.00 30.30     0.307 C 
HETATM    3  C2  MK1 B 902      17.998  18.632   8.030  1.00 27.27     0.200 C 
HETATM    4  N3  MK1 B 902      18.314  19.974   7.428  1.00 28.91    -0.395 N 
HETATM    5  C8  MK1 B 902      18.213  20.142   5.956  1.00 26.24     0.148 C 
HETATM    6  C9  MK1 B 902      18.575  18.953   5.089  1.00 27.47     0.292 C 
ENDROOT
BRANCH   1   7
HETATM    7  C31 MK1 B 902      18.710  16.566   4.777  1.00 36.25     0.312 C 
BRANCH   7   8
HETATM    8  C32 MK1 B 902      19.636  15.485   5.345  1.00 42.75    -0.015 A 
HETATM    9  C36 MK1 B 902      19.053  14.424   6.004  1.00 44.71     0.011 A 
HETATM   10  C35 MK1 B 902      19.890  13.449   6.539  1.00 49.34     0.018 A 
HETATM   11  C34 MK1 B 902      21.276  13.568   6.401  1.00 50.60     0.087 A 
HETATM   12  N5  MK1 B 902      21.945  14.604   5.752  1.00 51.38    -0.375 N 
HETATM   13  C33 MK1 B 902      21.034  15.543   5.241  1.00 47.41     0.096 A 
HETATM   14  H5  MK1 B 902      22.959  14.672   5.661  1.00  0.00     0.164 HD
ENDBRANCH   7   8
ENDBRANCH   1   7
BRANCH   3  15
HETATM   15  C3  MK1 B 902      18.644  18.421   9.373  1.00 28.85     0.242 C 
HETATM   16  O1  MK1 B 902      19.233  19.341   9.927  1.00 29.59    -0.271 OA
HETATM   17  N2  MK1 B 902      18.554  17.215   9.897  1.00 22.29    -0.351 N 
HETATM   18  H2  MK1 B 902      18.096  16.523   9.304  1.00  0.00     0.163 HD
BRANCH  17  19
HETATM   19  C4  MK1 B 902      18.994  16.722  11.164  1.00 23.47     0.022 C 
HETATM   20  C7  MK1 B 902      20.439  16.484  11.229  1.00 22.75     0.037 C 
HETATM   21  C5  MK1 B 902      18.363  15.330  11.347  1.00 27.66     0.037 C 
HETATM   22  C6  MK1 B 902      18.654  17.549  12.223  1.00 21.71     0.037 C 
ENDBRANCH  17  19
ENDBRANCH   3  15
BRANCH   4  23
HETATM   23  C10 MK1 B 902      17.763  21.147   8.077  1.00 20.86     0.149 C 
BRANCH  23  24
HETATM   24  C11 MK1 B 902      16.235  21.203   8.076  1.00 21.68     0.136 C 
BRANCH  24  25
HETATM   25  O2  MK1 B 902      16.123  21.609   9.407  1.00 15.87    -0.394 OA
HETATM   26  H2  MK1 B 902      15.903  20.847   9.930  1.00  0.00     0.210 HD
ENDBRANCH  24  25
BRANCH  24  27
HETATM   27  C12 MK1 B 902      15.405  22.170   7.212  1.00 21.49     0.047 C 
BRANCH  27  28
HETATM   28  C13 MK1 B 902      14.361  21.634   6.223  1.00 26.89     0.084 C 
BRANCH  28  29
HETATM   29  C21 MK1 B 902      12.956  22.125   6.551  1.00 29.35     0.222 C 
HETATM   30  N4  MK1 B 902      12.735  23.417   6.322  1.00 31.19    -0.350 N 
HETATM   31  H4  MK1 B 902      13.530  24.041   6.182  1.00  0.00     0.163 HD
HETATM   32  O3  MK1 B 902      12.072  21.326   6.896  1.00 32.66    -0.273 OA
BRANCH  30  33
HETATM   33  C22 MK1 B 902      11.389  23.961   6.266  1.00 29.22     0.147 C 
HETATM   34  C30 MK1 B 902      11.023  25.124   7.226  1.00 31.86    -0.027 A 
HETATM   35  C29 MK1 B 902      11.353  25.408   8.513  1.00 27.70     0.010 A 
HETATM   36  C25 MK1 B 902      10.087  26.151   6.529  1.00 31.29    -0.047 A 
HETATM   37  C28 MK1 B 902      10.882  26.547   9.152  1.00 29.01     0.001 A 
HETATM   38  C27 MK1 B 902      10.049  27.474   8.508  1.00 28.00     0.001 A 
HETATM   39  C26 MK1 B 902       9.644  27.276   7.183  1.00 32.00     0.008 A 
HETATM   40  C24 MK1 B 902       9.960  25.547   5.152  1.00 32.05     0.073 C 
HETATM   41  C23 MK1 B 902      11.069  24.551   4.903  1.00 28.82     0.149 C 
BRANCH  41  42
HETATM   42  O4  MK1 B 902      12.236  25.121   4.328  1.00 28.32    -0.393 OA
HETATM   43  H4  MK1 B 902      13.001  24.900   4.847  1.00  0.00     0.210 HD
ENDBRANCH  41  42
ENDBRANCH  30  33
ENDBRANCH  28  29
BRANCH  28  44
HETATM   44  C14 MK1 B 902      14.349  20.097   6.163  1.00 28.67     0.052 C 
BRANCH  44  45
HETATM   45  C15 MK1 B 902      14.725  19.577   4.824  1.00 26.89    -0.057 A 
HETATM   46  C16 MK1 B 902      14.849  20.403   3.704  1.00 29.22     0.007 A 
HETATM   47  C17 MK1 B 902      15.166  19.869   2.464  1.00 29.22     0.001 A 
HETATM   48  C18 MK1 B 902      15.359  18.490   2.355  1.00 30.97     0.000 A 
HETATM   49  C19 MK1 B 902      15.245  17.660   3.477  1.00 29.25     0.001 A 
HETATM   50  C20 MK1 B 902      14.925  18.212   4.717  1.00 29.96     0.007 A 
ENDBRANCH  44  45
ENDBRANCH  28  44
ENDBRANCH  27  28
ENDBRANCH  24  27
ENDBRANCH  23  24
ENDBRANCH   4  23
TORSDOF 14
ENDMDL
MODEL 17
REMARK VINA RESULT:      -8.8      2.811      5.428
REMARK  14 active torsions:
REMARK  status: ('A' for Active; 'I' for Inactive)
REMARK    1  A    between atoms: N1_1  and  C31_43 
REMARK    2  A    between atoms: C2_3  and  C3_4 
REMARK       I    between atoms: C3_4  and  N2_6 
REMARK    3  A    between atoms: N2_6  and  C4_8 
REMARK    4  A    between atoms: N3_12  and  C10_15 
REMARK    5  A    between atoms: C10_15  and  C11_16 
REMARK    6  A    between atoms: C11_16  and  O2_17 
REMARK    7  A    between atoms: C11_16  and  C12_19 
REMARK    8  A    between atoms: C12_19  and  C13_20 
REMARK    9  A    between atoms: C13_20  and  C21_28 
REMARK   10  A    between atoms: C13_20  and  C14_21 
REMARK   11  A    between atoms: C14_21  and  C15_22 
REMARK       I    between atoms: C21_28  and  N4_30 
REMARK   12  A    between atoms: N4_30  and  C22_32 
REMARK   13  A    between atoms: C23_33  and  O4_34 
REMARK   14  A    between atoms: C31_43  and  C32_44 
ROOT
HETATM    1  N1  MK1 B 902       4.544  23.430   3.730  1.00 28.25     0.096 N 
HETATM    2  C1  MK1 B 902       4.808  24.700   4.459  1.00 30.30     0.307 C 
HETATM    3  C2  MK1 B 902       5.769  25.737   3.913  1.00 27.27     0.200 C 
HETATM    4  N3  MK1 B 902       7.043  24.944   3.802  1.00 28.91    -0.395 N 
HETATM    5  C8  MK1 B 902       6.978  23.547   3.304  1.00 26.24     0.148 C 
HETATM    6  C9  MK1 B 902       5.750  22.733   3.660  1.00 27.47     0.292 C 
ENDROOT
BRANCH   1   7
HETATM    7  C31 MK1 B 902       3.396  22.628   4.171  1.00 36.25     0.312 C 
BRANCH   7   8
HETATM    8  C32 MK1 B 902       3.142  21.223   3.613  1.00 42.75    -0.015 A 
HETATM    9  C36 MK1 B 902       2.487  21.124   2.404  1.00 44.71     0.011 A 
HETATM   10  C35 MK1 B 902       2.236  19.849   1.902  1.00 49.34     0.018 A 
HETATM   11  C34 MK1 B 902       2.643  18.723   2.623  1.00 50.60     0.087 A 
HETATM   12  N5  MK1 B 902       3.309  18.735   3.848  1.00 51.38    -0.375 N 
HETATM   13  C33 MK1 B 902       3.525  20.053   4.285  1.00 47.41     0.096 A 
HETATM   14  H5  MK1 B 902       3.599  17.901   4.358  1.00  0.00     0.164 HD
ENDBRANCH   7   8
ENDBRANCH   1   7
BRANCH   3  15
HETATM   15  C3  MK1 B 902       5.862  26.866   4.904  1.00 28.85     0.242 C 
HETATM   16  O1  MK1 B 902       6.768  27.686   4.824  1.00 29.59    -0.271 OA
HETATM   17  N2  MK1 B 902       4.943  26.910   5.848  1.00 22.29    -0.351 N 
HETATM   18  H2  MK1 B 902       4.285  26.129   5.843  1.00  0.00     0.163 HD
BRANCH  17  19
HETATM   19  C4  MK1 B 902       4.719  27.875   6.876  1.00 23.47     0.022 C 
HETATM   20  C7  MK1 B 902       4.614  29.250   6.376  1.00 22.75     0.037 C 
HETATM   21  C5  MK1 B 902       5.975  27.882   7.767  1.00 27.66     0.037 C 
HETATM   22  C6  MK1 B 902       3.590  27.615   7.636  1.00 21.71     0.037 C 
ENDBRANCH  17  19
ENDBRANCH   3  15
BRANCH   4  23
HETATM   23  C10 MK1 B 902       8.194  25.602   3.215  1.00 20.86     0.149 C 
BRANCH  23  24
HETATM   24  C11 MK1 B 902       9.444  24.725   3.137  1.00 21.68     0.136 C 
BRANCH  24  25
HETATM   25  O2  MK1 B 902      10.182  25.625   2.366  1.00 15.87    -0.394 OA
HETATM   26  H2  MK1 B 902      11.089  25.344   2.374  1.00  0.00     0.210 HD
ENDBRANCH  24  25
BRANCH  24  27
HETATM   27  C12 MK1 B 902      10.300  24.329   4.355  1.00 21.49     0.047 C 
BRANCH  27  28
HETATM   28  C13 MK1 B 902      11.814  24.118   4.210  1.00 26.89     0.084 C 
BRANCH  28  29
HETATM   29  C21 MK1 B 902      12.240  22.718   4.638  1.00 29.35     0.222 C 
HETATM   30  N4  MK1 B 902      13.470  22.362   4.276  1.00 31.19    -0.350 N 
HETATM   31  H4  MK1 B 902      13.956  22.903   3.561  1.00  0.00     0.163 HD
HETATM   32  O3  MK1 B 902      11.511  22.032   5.369  1.00 32.66    -0.273 OA
BRANCH  30  33
HETATM   33  C22 MK1 B 902      14.138  21.219   4.875  1.00 29.22     0.147 C 
HETATM   34  C30 MK1 B 902      15.003  20.309   3.963  1.00 31.86    -0.027 A 
HETATM   35  C29 MK1 B 902      14.867  19.874   2.683  1.00 27.70     0.010 A 
HETATM   36  C25 MK1 B 902      16.276  19.818   4.709  1.00 31.29    -0.047 A 
HETATM   37  C28 MK1 B 902      15.812  19.049   2.089  1.00 29.01     0.001 A 
HETATM   38  C27 MK1 B 902      16.964  18.624   2.767  1.00 28.00     0.001 A 
HETATM   39  C26 MK1 B 902      17.201  19.010   4.091  1.00 32.00     0.008 A 
HETATM   40  C24 MK1 B 902      16.113  20.496   6.047  1.00 32.05     0.073 C 
HETATM   41  C23 MK1 B 902      15.128  21.637   5.950  1.00 28.82     0.149 C 
BRANCH  41  42
HETATM   42  O4  MK1 B 902      15.720  22.883   5.615  1.00 28.32    -0.393 OA
HETATM   43  H4  MK1 B 902      15.442  23.555   6.227  1.00  0.00     0.210 HD
ENDBRANCH  41  42
ENDBRANCH  30  33
ENDBRANCH  28  29
BRANCH  28  44
HETATM   44  C14 MK1 B 902      12.626  25.152   5.010  1.00 28.67     0.052 C 
BRANCH  44  45
HETATM   45  C15 MK1 B 902      12.027  25.440   6.337  1.00 26.89    -0.057 A 
HETATM   46  C16 MK1 B 902      10.797  26.085   6.484  1.00 29.22     0.007 A 
HETATM   47  C17 MK1 B 902      10.293  26.367   7.745  1.00 29.22     0.001 A 
HETATM   48  C18 MK1 B 902      11.039  25.996   8.866  1.00 30.97     0.000 A 
HETATM   49  C19 MK1 B 902      12.269  25.342   8.723  1.00 29.25     0.001 A 
HETATM   50  C20 MK1 B 902      12.762  25.065   7.449  1.00 29.96     0.007 A 
ENDBRANCH  44  45
ENDBRANCH  28  44
ENDBRANCH  27  28
ENDBRANCH  24  27
ENDBRANCH  23  24
ENDBRANCH   4  23
TORSDOF 14
ENDMDL
MODEL 18
REMARK VINA RESULT:      -8.7      2.634      6.631
REMARK  14 active torsions:
REMARK  status: ('A' for Active; 'I' for Inactive)
REMARK    1  A    between atoms: N1_1  and  C31_43 
REMARK    2  A    between atoms: C2_3  and  C3_4 
REMARK       I    between atoms: C3_4  and  N2_6 
REMARK    3  A    between atoms: N2_6  and  C4_8 
REMARK    4  A    between atoms: N3_12  and  C10_15 
REMARK    5  A    between atoms: C10_15  and  C11_16 
REMARK    6  A    between atoms: C11_16  and  O2_17 
REMARK    7  A    between atoms: C11_16  and  C12_19 
REMARK    8  A    between atoms: C12_19  and  C13_20 
REMARK    9  A    between atoms: C13_20  and  C21_28 
REMARK   10  A    between atoms: C13_20  and  C14_21 
REMARK   11  A    between atoms: C14_21  and  C15_22 
REMARK       I    between atoms: C21_28  and  N4_30 
REMARK   12  A    between atoms: N4_30  and  C22_32 
REMARK   13  A    between atoms: C23_33  and  O4_34 
REMARK   14  A    between atoms: C31_43  and  C32_44 
ROOT
HETATM    1  N1  MK1 B 902       4.308  25.398   3.424  1.00 28.25     0.096 N 
HETATM    2  C1  MK1 B 902       5.624  24.938   2.904  1.00 30.30     0.307 C 
HETATM    3  C2  MK1 B 902       6.823  24.781   3.818  1.00 27.27     0.200 C 
HETATM    4  N3  MK1 B 902       6.959  26.169   4.384  1.00 28.91    -0.395 N 
HETATM    5  C8  MK1 B 902       5.732  26.913   4.764  1.00 26.24     0.148 C 
HETATM    6  C9  MK1 B 902       4.488  26.685   3.930  1.00 27.47     0.292 C 
ENDROOT
BRANCH   1   7
HETATM    7  C31 MK1 B 902       3.145  25.240   2.543  1.00 36.25     0.312 C 
BRANCH   7   8
HETATM    8  C32 MK1 B 902       3.310  24.947   1.047  1.00 42.75    -0.015 A 
HETATM    9  C36 MK1 B 902       3.378  26.023   0.188  1.00 44.71     0.011 A 
HETATM   10  C35 MK1 B 902       3.507  25.763  -1.173  1.00 49.34     0.018 A 
HETATM   11  C34 MK1 B 902       3.562  24.442  -1.629  1.00 50.60     0.087 A 
HETATM   12  N5  MK1 B 902       3.500  23.301  -0.830  1.00 51.38    -0.375 N 
HETATM   13  C33 MK1 B 902       3.371  23.647   0.525  1.00 47.41     0.096 A 
HETATM   14  H5  MK1 B 902       3.542  22.344  -1.182  1.00  0.00     0.164 HD
ENDBRANCH   7   8
ENDBRANCH   1   7
BRANCH   3  15
HETATM   15  C3  MK1 B 902       8.004  24.365   2.985  1.00 28.85     0.242 C 
HETATM   16  O1  MK1 B 902       8.263  24.953   1.942  1.00 29.59    -0.271 OA
HETATM   17  N2  MK1 B 902       8.717  23.347   3.424  1.00 22.29    -0.351 N 
HETATM   18  H2  MK1 B 902       8.356  22.903   4.269  1.00  0.00     0.163 HD
BRANCH  17  19
HETATM   19  C4  MK1 B 902       9.915  22.766   2.908  1.00 23.47     0.022 C 
HETATM   20  C7  MK1 B 902      10.766  23.720   2.189  1.00 22.75     0.037 C 
HETATM   21  C5  MK1 B 902       9.493  21.742   1.839  1.00 27.66     0.037 C 
HETATM   22  C6  MK1 B 902      10.693  22.156   3.880  1.00 21.71     0.037 C 
ENDBRANCH  17  19
ENDBRANCH   3  15
BRANCH   4  23
HETATM   23  C10 MK1 B 902       7.975  26.384   5.394  1.00 20.86     0.149 C 
BRANCH  23  24
HETATM   24  C11 MK1 B 902       9.403  26.128   4.910  1.00 21.68     0.136 C 
BRANCH  24  25
HETATM   25  O2  MK1 B 902       9.842  27.437   5.114  1.00 15.87    -0.394 OA
HETATM   26  H2  MK1 B 902      10.760  27.405   5.359  1.00  0.00     0.210 HD
ENDBRANCH  24  25
BRANCH  24  27
HETATM   27  C12 MK1 B 902      10.396  25.179   5.608  1.00 21.49     0.047 C 
BRANCH  27  28
HETATM   28  C13 MK1 B 902      11.668  25.728   6.269  1.00 26.89     0.084 C 
BRANCH  28  29
HETATM   29  C21 MK1 B 902      12.917  24.983   5.813  1.00 29.35     0.222 C 
HETATM   30  N4  MK1 B 902      13.323  24.004   6.617  1.00 31.19    -0.350 N 
HETATM   31  H4  MK1 B 902      12.955  23.956   7.567  1.00  0.00     0.163 HD
HETATM   32  O3  MK1 B 902      13.427  25.223   4.708  1.00 32.66    -0.273 OA
BRANCH  30  33
HETATM   33  C22 MK1 B 902      14.277  23.002   6.174  1.00 29.22     0.147 C 
HETATM   34  C30 MK1 B 902      15.445  22.625   7.123  1.00 31.86    -0.027 A 
HETATM   35  C29 MK1 B 902      16.219  23.343   7.979  1.00 27.70     0.010 A 
HETATM   36  C25 MK1 B 902      15.760  21.104   7.046  1.00 31.29    -0.047 A 
HETATM   37  C28 MK1 B 902      17.218  22.745   8.734  1.00 29.01     0.001 A 
HETATM   38  C27 MK1 B 902      17.484  21.369   8.667  1.00 28.00     0.001 A 
HETATM   39  C26 MK1 B 902      16.749  20.537   7.815  1.00 32.00     0.008 A 
HETATM   40  C24 MK1 B 902      14.724  20.639   6.052  1.00 32.05     0.073 C 
HETATM   41  C23 MK1 B 902      13.615  21.657   5.922  1.00 28.82     0.149 C 
BRANCH  41  42
HETATM   42  O4  MK1 B 902      12.542  21.460   6.831  1.00 28.32    -0.393 OA
HETATM   43  H4  MK1 B 902      12.100  22.284   7.002  1.00  0.00     0.210 HD
ENDBRANCH  41  42
ENDBRANCH  30  33
ENDBRANCH  28  29
BRANCH  28  44
HETATM   44  C14 MK1 B 902      11.594  25.681   7.805  1.00 28.67     0.052 C 
BRANCH  44  45
HETATM   45  C15 MK1 B 902      10.349  26.294   8.333  1.00 26.89    -0.057 A 
HETATM   46  C16 MK1 B 902       9.219  25.542   8.658  1.00 29.22     0.007 A 
HETATM   47  C17 MK1 B 902       8.065  26.161   9.113  1.00 29.22     0.001 A 
HETATM   48  C18 MK1 B 902       8.053  27.552   9.239  1.00 30.97     0.000 A 
HETATM   49  C19 MK1 B 902       9.186  28.310   8.921  1.00 29.25     0.001 A 
HETATM   50  C20 MK1 B 902      10.340  27.672   8.465  1.00 29.96     0.007 A 
ENDBRANCH  44  45
ENDBRANCH  28  44
ENDBRANCH  27  28
ENDBRANCH  24  27
ENDBRANCH  23  24
ENDBRANCH   4  23
TORSDOF 14
ENDMDL
MODEL 19
REMARK VINA RESULT:      -8.7      4.870      9.538
REMARK  14 active torsions:
REMARK  status: ('A' for Active; 'I' for Inactive)
REMARK    1  A    between atoms: N1_1  and  C31_43 
REMARK    2  A    between atoms: C2_3  and  C3_4 
REMARK       I    between atoms: C3_4  and  N2_6 
REMARK    3  A    between atoms: N2_6  and  C4_8 
REMARK    4  A    between atoms: N3_12  and  C10_15 
REMARK    5  A    between atoms: C10_15  and  C11_16 
REMARK    6  A    between atoms: C11_16  and  O2_17 
REMARK    7  A    between atoms: C11_16  and  C12_19 
REMARK    8  A    between atoms: C12_19  and  C13_20 
REMARK    9  A    between atoms: C13_20  and  C21_28 
REMARK   10  A    between atoms: C13_20  and  C14_21 
REMARK   11  A    between atoms: C14_21  and  C15_22 
REMARK       I    between atoms: C21_28  and  N4_30 
REMARK   12  A    between atoms: N4_30  and  C22_32 
REMARK   13  A    between atoms: C23_33  and  O4_34 
REMARK   14  A    between atoms: C31_43  and  C32_44 
ROOT
HETATM    1  N1  MK1 B 902       4.736  23.900   3.562  1.00 28.25     0.096 N 
HETATM    2  C1  MK1 B 902       6.126  23.493   3.224  1.00 30.30     0.307 C 
HETATM    3  C2  MK1 B 902       7.323  24.244   3.773  1.00 27.27     0.200 C 
HETATM    4  N3  MK1 B 902       7.067  25.638   3.267  1.00 28.91    -0.395 N 
HETATM    5  C8  MK1 B 902       5.682  26.170   3.301  1.00 26.24     0.148 C 
HETATM    6  C9  MK1 B 902       4.549  25.191   3.070  1.00 27.47     0.292 C 
ENDROOT
BRANCH   1   7
HETATM    7  C31 MK1 B 902       3.660  22.956   3.235  1.00 36.25     0.312 C 
BRANCH   7   8
HETATM    8  C32 MK1 B 902       3.627  21.545   3.834  1.00 42.75    -0.015 A 
HETATM    9  C36 MK1 B 902       2.819  20.610   3.223  1.00 44.71     0.011 A 
HETATM   10  C35 MK1 B 902       2.769  19.332   3.774  1.00 49.34     0.018 A 
HETATM   11  C34 MK1 B 902       3.524  19.034   4.913  1.00 50.60     0.087 A 
HETATM   12  N5  MK1 B 902       4.363  19.917   5.590  1.00 51.38    -0.375 N 
HETATM   13  C33 MK1 B 902       4.358  21.180   4.974  1.00 47.41     0.096 A 
HETATM   14  H5  MK1 B 902       4.906  19.680   6.420  1.00  0.00     0.164 HD
ENDBRANCH   7   8
ENDBRANCH   1   7
BRANCH   3  15
HETATM   15  C3  MK1 B 902       8.571  23.629   3.201  1.00 28.85     0.242 C 
HETATM   16  O1  MK1 B 902       8.495  22.709   2.396  1.00 29.59    -0.271 OA
HETATM   17  N2  MK1 B 902       9.723  24.116   3.618  1.00 22.29    -0.351 N 
HETATM   18  H2  MK1 B 902       9.649  24.834   4.340  1.00  0.00     0.163 HD
BRANCH  17  19
HETATM   19  C4  MK1 B 902      11.059  23.801   3.221  1.00 23.47     0.022 C 
HETATM   20  C7  MK1 B 902      12.072  24.663   3.838  1.00 22.75     0.037 C 
HETATM   21  C5  MK1 B 902      11.162  24.100   1.714  1.00 27.66     0.037 C 
HETATM   22  C6  MK1 B 902      11.412  22.486   3.478  1.00 21.71     0.037 C 
ENDBRANCH  17  19
ENDBRANCH   3  15
BRANCH   4  23
HETATM   23  C10 MK1 B 902       7.985  26.680   3.681  1.00 20.86     0.149 C 
BRANCH  23  24
HETATM   24  C11 MK1 B 902       7.953  26.983   5.180  1.00 21.68     0.136 C 
BRANCH  24  25
HETATM   25  O2  MK1 B 902       9.288  27.382   5.257  1.00 15.87    -0.394 OA
HETATM   26  H2  MK1 B 902       9.676  27.276   4.396  1.00  0.00     0.210 HD
ENDBRANCH  24  25
BRANCH  24  27
HETATM   27  C12 MK1 B 902       7.089  28.086   5.820  1.00 21.49     0.047 C 
BRANCH  27  28
HETATM   28  C13 MK1 B 902       6.386  27.847   7.164  1.00 26.89     0.084 C 
BRANCH  28  29
HETATM   29  C21 MK1 B 902       7.367  27.451   8.261  1.00 29.35     0.222 C 
HETATM   30  N4  MK1 B 902       8.194  26.455   7.954  1.00 31.19    -0.350 N 
HETATM   31  H4  MK1 B 902       7.988  25.869   7.145  1.00  0.00     0.163 HD
HETATM   32  O3  MK1 B 902       7.439  28.107   9.311  1.00 32.66    -0.273 OA
BRANCH  30  33
HETATM   33  C22 MK1 B 902       9.383  26.182   8.743  1.00 29.22     0.147 C 
HETATM   34  C30 MK1 B 902      10.459  25.234   8.152  1.00 31.86    -0.027 A 
HETATM   35  C29 MK1 B 902      10.394  24.102   7.403  1.00 27.70     0.010 A 
HETATM   36  C25 MK1 B 902      11.892  25.718   8.516  1.00 31.29    -0.047 A 
HETATM   37  C28 MK1 B 902      11.538  23.433   6.991  1.00 29.01     0.001 A 
HETATM   38  C27 MK1 B 902      12.826  23.887   7.314  1.00 28.00     0.001 A 
HETATM   39  C26 MK1 B 902      13.008  25.040   8.085  1.00 32.00     0.008 A 
HETATM   40  C24 MK1 B 902      11.589  26.970   9.302  1.00 32.05     0.073 C 
HETATM   41  C23 MK1 B 902      10.180  27.444   9.026  1.00 28.82     0.149 C 
BRANCH  41  42
HETATM   42  O4  MK1 B 902      10.079  28.345   7.933  1.00 28.32    -0.393 OA
HETATM   43  H4  MK1 B 902      10.633  29.104   8.080  1.00  0.00     0.210 HD
ENDBRANCH  41  42
ENDBRANCH  30  33
ENDBRANCH  28  29
BRANCH  28  44
HETATM   44  C14 MK1 B 902       5.289  26.773   7.065  1.00 28.67     0.052 C 
BRANCH  44  45
HETATM   45  C15 MK1 B 902       3.945  27.300   7.410  1.00 26.89    -0.057 A 
HETATM   46  C16 MK1 B 902       2.776  26.561   7.221  1.00 29.22     0.007 A 
HETATM   47  C17 MK1 B 902       1.537  27.108   7.524  1.00 29.22     0.001 A 
HETATM   48  C18 MK1 B 902       1.481  28.413   8.018  1.00 30.97     0.000 A 
HETATM   49  C19 MK1 B 902       2.652  29.155   8.216  1.00 29.25     0.001 A 
HETATM   50  C20 MK1 B 902       3.890  28.591   7.908  1.00 29.96     0.007 A 
ENDBRANCH  44  45
ENDBRANCH  28  44
ENDBRANCH  27  28
ENDBRANCH  24  27
ENDBRANCH  23  24
ENDBRANCH   4  23
TORSDOF 14
ENDMDL
MODEL 20
REMARK VINA RESULT:      -8.6      5.424     11.214
REMARK  14 active torsions:
REMARK  status: ('A' for Active; 'I' for Inactive)
REMARK    1  A    between atoms: N1_1  and  C31_43 
REMARK    2  A    between atoms: C2_3  and  C3_4 
REMARK       I    between atoms: C3_4  and  N2_6 
REMARK    3  A    between atoms: N2_6  and  C4_8 
REMARK    4  A    between atoms: N3_12  and  C10_15 
REMARK    5  A    between atoms: C10_15  and  C11_16 
REMARK    6  A    between atoms: C11_16  and  O2_17 
REMARK    7  A    between atoms: C11_16  and  C12_19 
REMARK    8  A    between atoms: C12_19  and  C13_20 
REMARK    9  A    between atoms: C13_20  and  C21_28 
REMARK   10  A    between atoms: C13_20  and  C14_21 
REMARK   11  A    between atoms: C14_21  and  C15_22 
REMARK       I    between atoms: C21_28  and  N4_30 
REMARK   12  A    between atoms: N4_30  and  C22_32 
REMARK   13  A    between atoms: C23_33  and  O4_34 
REMARK   14  A    between atoms: C31_43  and  C32_44 
ROOT
HETATM    1  N1  MK1 B 902       4.686  23.842   3.494  1.00 28.25     0.096 N 
HETATM    2  C1  MK1 B 902       6.083  23.454   3.158  1.00 30.30     0.307 C 
HETATM    3  C2  MK1 B 902       7.269  24.214   3.717  1.00 27.27     0.200 C 
HETATM    4  N3  MK1 B 902       6.998  25.609   3.221  1.00 28.91    -0.395 N 
HETATM    5  C8  MK1 B 902       5.607  26.125   3.253  1.00 26.24     0.148 C 
HETATM    6  C9  MK1 B 902       4.486  25.134   3.010  1.00 27.47     0.292 C 
ENDROOT
BRANCH   1   7
HETATM    7  C31 MK1 B 902       3.624  22.887   3.155  1.00 36.25     0.312 C 
BRANCH   7   8
HETATM    8  C32 MK1 B 902       3.586  21.483   3.769  1.00 42.75    -0.015 A 
HETATM    9  C36 MK1 B 902       2.798  20.536   3.152  1.00 44.71     0.011 A 
HETATM   10  C35 MK1 B 902       2.744  19.264   3.716  1.00 49.34     0.018 A 
HETATM   11  C34 MK1 B 902       3.474  18.984   4.875  1.00 50.60     0.087 A 
HETATM   12  N5  MK1 B 902       4.293  19.881   5.560  1.00 51.38    -0.375 N 
HETATM   13  C33 MK1 B 902       4.294  21.136   4.929  1.00 47.41     0.096 A 
HETATM   14  H5  MK1 B 902       4.819  19.656   6.404  1.00  0.00     0.164 HD
ENDBRANCH   7   8
ENDBRANCH   1   7
BRANCH   3  15
HETATM   15  C3  MK1 B 902       8.526  23.618   3.145  1.00 28.85     0.242 C 
HETATM   16  O1  MK1 B 902       8.463  22.750   2.284  1.00 29.59    -0.271 OA
HETATM   17  N2  MK1 B 902       9.671  24.066   3.623  1.00 22.29    -0.351 N 
HETATM   18  H2  MK1 B 902       9.584  24.740   4.383  1.00  0.00     0.163 HD
BRANCH  17  19
HETATM   19  C4  MK1 B 902      11.014  23.758   3.246  1.00 23.47     0.022 C 
HETATM   20  C7  MK1 B 902      11.390  22.365   3.506  1.00 22.75     0.037 C 
HETATM   21  C5  MK1 B 902      11.937  24.585   4.159  1.00 27.66     0.037 C 
HETATM   22  C6  MK1 B 902      11.285  24.026   1.914  1.00 21.71     0.037 C 
ENDBRANCH  17  19
ENDBRANCH   3  15
BRANCH   4  23
HETATM   23  C10 MK1 B 902       7.902  26.659   3.646  1.00 20.86     0.149 C 
BRANCH  23  24
HETATM   24  C11 MK1 B 902       8.061  26.771   5.163  1.00 21.68     0.136 C 
BRANCH  24  25
HETATM   25  O2  MK1 B 902       9.446  26.942   5.133  1.00 15.87    -0.394 OA
HETATM   26  H2  MK1 B 902       9.799  26.633   5.959  1.00  0.00     0.210 HD
ENDBRANCH  24  25
BRANCH  24  27
HETATM   27  C12 MK1 B 902       7.460  27.905   6.014  1.00 21.49     0.047 C 
BRANCH  27  28
HETATM   28  C13 MK1 B 902       6.684  27.590   7.301  1.00 26.89     0.084 C 
BRANCH  28  29
HETATM   29  C21 MK1 B 902       5.333  28.295   7.342  1.00 29.35     0.222 C 
HETATM   30  N4  MK1 B 902       5.290  29.480   6.739  1.00 31.19    -0.350 N 
HETATM   31  H4  MK1 B 902       6.163  29.953   6.506  1.00  0.00     0.163 HD
HETATM   32  O3  MK1 B 902       4.338  27.724   7.812  1.00 32.66    -0.273 OA
BRANCH  30  33
HETATM   33  C22 MK1 B 902       4.028  30.118   6.405  1.00 29.22     0.147 C 
HETATM   34  C30 MK1 B 902       4.037  31.625   6.037  1.00 31.86    -0.027 A 
HETATM   35  C29 MK1 B 902       4.741  32.692   6.498  1.00 27.70     0.010 A 
HETATM   36  C25 MK1 B 902       3.019  31.930   4.901  1.00 31.29    -0.047 A 
HETATM   37  C28 MK1 B 902       4.557  33.966   5.978  1.00 29.01     0.001 A 
HETATM   38  C27 MK1 B 902       3.645  34.227   4.944  1.00 28.00     0.001 A 
HETATM   39  C26 MK1 B 902       2.866  33.200   4.398  1.00 32.00     0.008 A 
HETATM   40  C24 MK1 B 902       2.461  30.555   4.629  1.00 32.05     0.073 C 
HETATM   41  C23 MK1 B 902       3.377  29.488   5.185  1.00 28.82     0.149 C 
BRANCH  41  42
HETATM   42  O4  MK1 B 902       4.370  29.048   4.270  1.00 28.32    -0.393 OA
HETATM   43  H4  MK1 B 902       4.011  28.388   3.688  1.00  0.00     0.210 HD
ENDBRANCH  41  42
ENDBRANCH  30  33
ENDBRANCH  28  29
BRANCH  28  44
HETATM   44  C14 MK1 B 902       7.478  27.962   8.565  1.00 28.67     0.052 C 
BRANCH  44  45
HETATM   45  C15 MK1 B 902       8.694  27.127   8.738  1.00 26.89    -0.057 A 
HETATM   46  C16 MK1 B 902       8.641  25.738   8.864  1.00 29.22     0.007 A 
HETATM   47  C17 MK1 B 902       9.800  25.001   9.060  1.00 29.22     0.001 A 
HETATM   48  C18 MK1 B 902      11.021  25.675   9.131  1.00 30.97     0.000 A 
HETATM   49  C19 MK1 B 902      11.079  27.068   8.997  1.00 29.25     0.001 A 
HETATM   50  C20 MK1 B 902       9.905  27.794   8.800  1.00 29.96     0.007 A 
ENDBRANCH  44  45
ENDBRANCH  28  44
ENDBRANCH  27  28
ENDBRANCH  24  27
ENDBRANCH  23  24
ENDBRANCH   4  23
TORSDOF 14
ENDMDL
